*SPEF "IEEE 1481.1999"
*DESIGN "CompBlock"
*DATE "11:34:52 Thursday May 05, 2022"
*VENDOR "unknown"
*PROGRAM "qrouter"
*VERSION "unknown"
*DESIGN_FLOW "qflow"
*DIVIDER /
*DELIMITER :
*BUS_DELIMITER <>
*T_UNIT 1 PS
*C_UNIT 1 FF
*R_UNIT 1 OHM
*L_UNIT 1 HENRY

*NAME_MAP
*1 _141_
*2 INVX1_2
*3 OAI21X1_492
*4 OAI21X1_435
*5 OAI21X1_381
*6 NOR2X1_139
*7 NOR2X1_118
*8 NOR2X1_1
*9 NOR2X1_95
*10 NOR2X1_86
*11 NOR2X1_16
*12 OAI21X1_1
*13 OAI22X1_2
*14 OAI21X1_8
*15 NOR2X1_26
*16 NOR2X1_45
*17 OAI21X1_16
*18 OAI21X1_221
*19 clk
*20 DFFPOSX1_16
*21 DFFPOSX1_15
*22 DFFPOSX1_14
*23 DFFPOSX1_13
*24 DFFPOSX1_11
*25 DFFPOSX1_12
*26 DFFPOSX1_10
*27 DFFPOSX1_4
*28 DFFPOSX1_3
*29 DFFPOSX1_5
*30 DFFPOSX1_9
*31 DFFPOSX1_7
*32 DFFPOSX1_8
*33 DFFPOSX1_2
*34 DFFPOSX1_1
*35 DFFPOSX1_6
*36 vertices[3]
*37 NAND2X1_332
*38 NAND2X1_334
*39 NAND2X1_458
*40 INVX1_29
*41 NAND2X1_173
*42 NAND2X1_172
*43 NAND2X1_285
*44 AOI22X1_3
*45 NAND2X1_109
*46 AND2X2_23
*47 AND2X2_28
*48 NAND2X1_38
*49 NAND2X1_65
*50 NAND2X1_25
*51 NAND2X1_502
*52 vertices[4]
*53 AOI22X1_8
*54 NAND2X1_66
*55 AOI22X1_5
*56 NAND2X1_114
*57 AND2X2_29
*58 NAND2X1_176
*59 NAND2X1_225
*60 NAND2X1_226
*61 INVX1_50
*62 NAND2X1_388
*63 NAND2X1_387
*64 NAND2X1_504
*65 NAND2X1_39
*66 AND2X2_12
*67 NAND2X1_88
*68 vertices[6]
*69 NAND2X1_116
*70 NAND3X1_74
*71 AOI22X1_6
*72 AND2X2_24
*73 NAND3X1_43
*74 NAND2X1_90
*75 NAND2X1_144
*76 AOI22X1_17
*77 NAND2X1_177
*78 NAND2X1_230
*79 INVX1_177
*80 NAND2X1_337
*81 NAND2X1_339
*82 NAND2X1_463
*83 NAND2X1_503
*84 vertices[2]
*85 NAND2X1_281
*86 NAND2X1_282
*87 NAND2X1_224
*88 NAND2X1_136
*89 NAND2X1_11
*90 NAND2X1_40
*91 NAND2X1_112
*92 AND2X2_22
*93 NAND2X1_62
*94 AND2X2_16
*95 INVX1_16
*96 NAND2X1_10
*97 NAND2X1_386
*98 NAND2X1_455
*99 vertices[5]
*100 AOI22X1_11
*101 AOI22X1_6
*102 NAND3X1_44
*103 AOI22X1_5
*104 NAND2X1_138
*105 NAND2X1_140
*106 NAND2X1_286
*107 NAND2X1_395
*108 INVX1_73
*109 NAND2X1_338
*110 NAND2X1_457
*111 NAND2X1_89
*112 AND2X2_17
*113 NAND2X1_115
*114 _130_
*115 INVX1_1
*116 OAI21X1_102
*117 OAI21X1_146
*118 OAI21X1_188
*119 OAI22X1_6
*120 OAI21X1_231
*121 OAI21X1_283
*122 OAI21X1_397
*123 OAI21X1_43
*124 OAI21X1_45
*125 OAI21X1_14
*126 OAI21X1_6
*127 NOR2X1_1
*128 OAI21X1_24
*129 cos_gamma[1]
*130 NAND3X1_102
*131 NAND3X1_35
*132 NAND2X1_47
*133 NAND2X1_23
*134 NAND2X1_211
*135 NAND2X1_277
*136 NAND3X1_258
*137 NAND2X1_329
*138 INVX1_8
*139 NAND2X1_375
*140 NAND3X1_461
*141 NAND3X1_509
*142 NAND3X1_507
*143 _326_
*144 INVX1_8
*145 AOI21X1_185
*146 AOI21X1_211
*147 AOI21X1_123
*148 NOR2X1_7
*149 OAI22X1_1
*150 OAI22X1_3
*151 AOI21X1_44
*152 OAI21X1_81
*153 OAI21X1_111
*154 OAI21X1_110
*155 OAI21X1_55
*156 AOI21X1_82
*157 AOI21X1_228
*158 vertices[1]
*159 NAND2X1_385
*160 NAND2X1_219
*161 INVX1_45
*162 AOI22X1_10
*163 NAND2X1_108
*164 NAND2X1_174
*165 NAND2X1_24
*166 AND2X2_15
*167 NAND2X1_37
*168 NAND2X1_86
*169 NAND2X1_5
*170 NAND2X1_4
*171 NAND2X1_384
*172 _392_
*173 OAI21X1_2
*174 NOR2X1_7
*175 OAI22X1_1
*176 NOR2X1_54
*177 OAI21X1_35
*178 NOR2X1_30
*179 NOR2X1_67
*180 NOR2X1_68
*181 NOR2X1_91
*182 OAI21X1_168
*183 NOR2X1_100
*184 OAI21X1_315
*185 NOR2X1_154
*186 INVX1_27
*187 _2249_
*188 INVX1_65
*189 OAI21X1_217
*190 NOR2X1_70
*191 OAI21X1_37
*192 NOR2X1_54
*193 OAI21X1_93
*194 NOR2X1_85
*195 OAI21X1_172
*196 NOR2X1_93
*197 OAI21X1_132
*198 OAI21X1_264
*199 NOR2X1_117
*200 NOR2X1_197
*201 OAI21X1_500
*202 vertices[7]
*203 NAND2X1_117
*204 INVX1_128
*205 NAND3X1_73
*206 AND2X2_31
*207 NAND3X1_124
*208 NAND2X1_143
*209 AND2X2_37
*210 NAND2X1_178
*211 NAND2X1_231
*212 NAND2X1_232
*213 NAND2X1_397
*214 NAND2X1_396
*215 NAND2X1_507
*216 _152_
*217 NOR2X1_1
*218 INVX1_9
*219 NAND2X1_9
*220 NAND2X1_1
*221 NAND3X1_13
*222 NAND2X1_21
*223 NAND2X1_77
*224 NAND2X1_124
*225 NAND2X1_155
*226 NAND3X1_279
*227 NAND2X1_306
*228 NAND2X1_425
*229 NAND2X1_490
*230 _337_
*231 INVX1_9
*232 OAI21X1_2
*233 OAI22X1_1
*234 OAI21X1_37
*235 OAI21X1_12
*236 OAI21X1_20
*237 OAI21X1_60
*238 OAI21X1_88
*239 OAI21X1_257
*240 OAI21X1_209
*241 OAI21X1_367
*242 OAI21X1_312
*243 NOR2X1_15
*244 _852_
*245 INVX1_18
*246 OAI21X1_126
*247 OAI21X1_212
*248 NOR2X1_90
*249 OAI21X1_371
*250 OAI21X1_419
*251 OAI21X1_255
*252 NOR2X1_83
*253 OAI21X1_63
*254 NOR2X1_70
*255 NOR2X1_35
*256 OAI21X1_9
*257 OAI21X1_93
*258 cos_gamma[3]
*259 NAND2X1_21
*260 NAND2X1_79
*261 NAND2X1_321
*262 NAND2X1_267
*263 NAND2X1_208
*264 NAND2X1_161
*265 AOI21X1_219
*266 NAND2X1_532
*267 INVX1_22
*268 NAND2X1_126
*269 NAND2X1_53
*270 NAND2X1_32
*271 cos_alpha[3]
*272 NAND2X1_340
*273 NAND2X1_406
*274 NAND2X1_232
*275 NAND2X1_230
*276 NAND2X1_140
*277 AND2X2_23
*278 NAND2X1_62
*279 AND2X2_16
*280 AND2X2_29
*281 NAND2X1_114
*282 INVX1_28
*283 NAND2X1_510
*284 cos_alpha[4]
*285 NAND2X1_465
*286 NAND2X1_231
*287 NAND2X1_177
*288 NAND2X1_138
*289 AND2X2_28
*290 AND2X2_22
*291 NAND2X1_37
*292 AND2X2_15
*293 NAND2X1_109
*294 INVX1_46
*295 NAND2X1_290
*296 NAND2X1_405
*297 cos_gamma[2]
*298 AOI22X1_15
*299 NAND2X1_9
*300 NAND2X1_150
*301 NAND2X1_167
*302 NAND2X1_218
*303 INVX1_41
*304 NAND2X1_276
*305 AOI22X1_45
*306 NAND3X1_508
*307 AOI22X1_21
*308 NAND2X1_22
*309 _1278_
*310 INVX1_28
*311 OAI21X1_98
*312 OAI22X1_4
*313 OAI21X1_41
*314 OAI21X1_70
*315 NOR2X1_26
*316 OAI22X1_2
*317 OAI21X1_16
*318 OAI21X1_184
*319 OAI22X1_9
*320 OAI21X1_339
*321 OAI21X1_277
*322 _2205_
*323 NAND2X1_46
*324 NOR2X1_56
*325 OAI21X1_172
*326 OAI21X1_91
*327 OAI22X1_3
*328 OAI21X1_55
*329 NOR2X1_132
*330 NOR2X1_199
*331 NOR2X1_111
*332 NOR2X1_101
*333 OAI22X1_8
*334 NOR2X1_93
*335 _741_
*336 INVX1_16
*337 OAI21X1_26
*338 OAI21X1_6
*339 OAI21X1_138
*340 OAI21X1_137
*341 OAI21X1_178
*342 OAI21X1_433
*343 OAI21X1_385
*344 OAI21X1_41
*345 OAI22X1_4
*346 OAI21X1_69
*347 _841_
*348 NOR2X1_18
*349 NAND3X1_2
*350 NAND2X1_23
*351 NAND2X1_53
*352 INVX1_18
*353 NAND3X1_222
*354 NAND3X1_338
*355 NAND2X1_256
*356 NAND3X1_398
*357 NAND2X1_426
*358 NAND2X1_54
*359 _1990_
*360 INVX1_43
*361 NOR2X1_85
*362 OAI21X1_132
*363 OAI22X1_3
*364 NOR2X1_44
*365 OAI21X1_166
*366 NOR2X1_110
*367 OAI21X1_423
*368 OAI21X1_370
*369 NOR2X1_131
*370 OAI21X1_314
*371 cos_alpha[6]
*372 NAND2X1_508
*373 NAND2X1_396
*374 NAND2X1_338
*375 NAND2X1_337
*376 NAND2X1_226
*377 NAND2X1_173
*378 NAND2X1_136
*379 AOI22X1_10
*380 NAND2X1_84
*381 INVX1_148
*382 vertices[8]
*383 NAND2X1_145
*384 NAND3X1_123
*385 AND2X2_43
*386 AND2X2_38
*387 NAND2X1_234
*388 INVX1_153
*389 NAND2X1_290
*390 NAND2X1_462
*391 NAND3X1_464
*392 NAND2X1_404
*393 _315_
*394 INVX1_7
*395 OAI21X1_355
*396 OAI21X1_356
*397 OAI21X1_243
*398 AOI21X1_98
*399 OAI21X1_9
*400 OAI22X1_3
*401 OAI22X1_1
*402 AOI21X1_43
*403 NOR3X1_46
*404 _1322_
*405 INVX1_29
*406 OAI21X1_439
*407 OAI21X1_383
*408 OAI21X1_324
*409 OAI21X1_223
*410 NOR2X1_87
*411 OAI21X1_14
*412 OAI22X1_4
*413 OAI21X1_70
*414 OAI21X1_144
*415 cos_gamma[4]
*416 NAND2X1_80
*417 NAND2X1_103
*418 NAND2X1_54
*419 NAND2X1_127
*420 INVX1_36
*421 NAND2X1_209
*422 NAND2X1_269
*423 NAND2X1_323
*424 NAND3X1_399
*425 _1781_
*426 INVX1_36
*427 OAI21X1_171
*428 OAI21X1_215
*429 OAI21X1_499
*430 AOI21X1_218
*431 NOR2X1_172
*432 OAI21X1_63
*433 OAI21X1_35
*434 OAI21X1_20
*435 NOR2X1_30
*436 _2493_
*437 NAND2X1_94
*438 OAI21X1_81
*439 NOR2X1_72
*440 OAI21X1_171
*441 OAI21X1_130
*442 OAI21X1_217
*443 NOR2X1_156
*444 OAI21X1_317
*445 NOR2X1_112
*446 OAI22X1_8
*447 cos_alpha[7]
*448 NAND2X1_462
*449 NAND2X1_397
*450 NAND2X1_286
*451 INVX1_146
*452 NAND2X1_225
*453 NAND2X1_172
*454 NAND2X1_108
*455 AOI22X1_10
*456 NAND2X1_339
*457 _4_
*458 NAND2X1_148
*459 NAND3X1_153
*460 NAND3X1_157
*461 NAND2X1_218
*462 NAND2X1_269
*463 NAND2X1_267
*464 NAND2X1_374
*465 NAND3X1_457
*466 NAND2X1_438
*467 NAND2X1_440
*468 _243_
*469 NAND2X1_187
*470 NAND3X1_206
*471 NAND3X1_258
*472 NAND3X1_399
*473 NAND2X1_323
*474 NAND2X1_321
*475 NAND2X1_276
*476 NAND2X1_535
*477 NAND2X1_446
*478 NAND2X1_211
*479 _2034_
*480 INVX1_45
*481 OAI21X1_136
*482 OAI21X1_180
*483 OAI22X1_2
*484 OAI21X1_268
*485 OAI21X1_326
*486 NOR2X1_141
*487 OAI21X1_327
*488 NOR2X1_182
*489 _2277_
*490 INVX1_71
*491 NOR2X1_147
*492 OAI21X1_448
*493 NOR2X1_188
*494 NOR2X1_124
*495 NOR2X1_104
*496 OAI21X1_144
*497 NOR2X1_87
*498 NOR2X1_45
*499 vertices[9]
*500 NAND2X1_508
*501 NAND2X1_405
*502 NAND2X1_340
*503 INVX1_179
*504 NAND2X1_233
*505 NAND2X1_291
*506 AND2X2_44
*507 NAND2X1_466
*508 _358_
*509 INVX1_10
*510 OAI21X1_187
*511 OAI22X1_6
*512 OAI21X1_44
*513 OAI21X1_1
*514 OAI21X1_282
*515 OAI21X1_281
*516 OAI21X1_450
*517 _1125_
*518 INVX1_22
*519 OAI21X1_377
*520 NOR2X1_196
*521 OAI21X1_501
*522 NOR2X1_157
*523 OAI21X1_130
*524 OAI21X1_91
*525 OAI21X1_12
*526 _1487_
*527 AND2X2_10
*528 INVX1_43
*529 NAND2X1_80
*530 NAND2X1_26
*531 NAND2X1_79
*532 NAND2X1_156
*533 NAND2X1_437
*534 NAND2X1_491
*535 _1957_
*536 INVX1_41
*537 NOR2X1_174
*538 AOI21X1_196
*539 NOR2X1_138
*540 NOR2X1_35
*541 NOR2X1_44
*542 NOR2X1_56
*543 NOR2X1_72
*544 cos_gamma[5]
*545 NAND3X1_13
*546 NAND2X1_374
*547 NAND2X1_320
*548 NAND3X1_457
*549 NAND2X1_446
*550 NAND3X1_223
*551 INVX1_65
*552 cos_alpha[5]
*553 INVX1_71
*554 NAND2X1_112
*555 NAND2X1_86
*556 NAND2X1_176
*557 NAND3X1_464
*558 NAND2X1_404
*559 NAND2X1_466
*560 _2377_
*561 INVX1_91
*562 OAI21X1_60
*563 OAI21X1_126
*564 OAI21X1_166
*565 NOR2X1_68
*566 NOR2X1_90
*567 NOR2X1_101
*568 NOR2X1_112
*569 _2574_
*570 NOR2X1_73
*571 NAND3X1_102
*572 AOI22X1_21
*573 NAND2X1_150
*574 INVX1_124
*575 NAND2X1_161
*576 NAND2X1_311
*577 NAND2X1_534
*578 _2575_
*579 INVX1_124
*580 OAI21X1_215
*581 NOR2X1_117
*582 OAI21X1_264
*583 OAI21X1_373
*584 NOR2X1_168
*585 OAI21X1_111
*586 OAI21X1_110
*587 _2585_
*588 NAND2X1_110
*589 AOI22X1_14
*590 NAND2X1_111
*591 AND2X2_32
*592 AOI21X1_70
*593 NAND3X1_138
*594 INVX1_155
*595 OAI21X1_175
*596 cos_alpha[8]
*597 NAND2X1_507
*598 NAND2X1_463
*599 NAND2X1_395
*600 NAND2X1_285
*601 NAND2X1_224
*602 NAND2X1_174
*603 INVX1_144
*604 _2868_
*605 NAND3X1_142
*606 NAND3X1_154
*607 NAND3X1_147
*608 NAND3X1_203
*609 NAND2X1_278
*610 OAI21X1_219
*611 NAND2X1_168
*612 NAND3X1_202
*613 cos_gamma[9]
*614 NAND2X1_199
*615 NAND2X1_155
*616 NAND3X1_338
*617 NAND3X1_397
*618 NAND2X1_362
*619 NAND2X1_534
*620 INVX1_227
*621 _72_
*622 INVX1_167
*623 OAI21X1_212
*624 NOR2X1_156
*625 NOR2X1_168
*626 NOR2X1_132
*627 NOR2X1_110
*628 OAI21X1_168
*629 NOR2X1_91
*630 _114_
*631 NAND2X1_166
*632 NAND2X1_167
*633 NAND2X1_208
*634 NAND2X1_209
*635 NAND2X1_320
*636 NAND2X1_363
*637 NAND2X1_364
*638 NAND2X1_536
*639 _518_
*640 NAND2X1_245
*641 OAI21X1_377
*642 NOR2X1_197
*643 NOR2X1_138
*644 OAI21X1_500
*645 NOR2X1_172
*646 NOR2X1_157
*647 OAI21X1_243
*648 _1139_
*649 NAND3X1_365
*650 INVX1_359
*651 NAND3X1_479
*652 NAND3X1_427
*653 NAND3X1_429
*654 OAI21X1_406
*655 NAND2X1_346
*656 AND2X2_79
*657 cos_alpha[0_bF_buf3]
*658 BUFX2_1
*659 AOI22X1_40
*660 AND2X2_44
*661 NAND3X1_73
*662 AOI22X1_6
*663 INVX1_1
*664 AND2X2_17
*665 cos_alpha[0_bF_buf2]
*666 BUFX2_2
*667 NAND2X1_235
*668 NAND2X1_407
*669 AND2X2_38
*670 NAND2X1_66
*671 NAND3X1_43
*672 NAND2X1_4
*673 cos_alpha[0_bF_buf1]
*674 BUFX2_3
*675 NAND2X1_469
*676 NAND3X1_123
*677 NAND2X1_117
*678 AOI22X1_5
*679 NAND2X1_10
*680 AND2X2_63
*681 cos_alpha[0_bF_buf0]
*682 BUFX2_4
*683 NAND2X1_145
*684 NAND2X1_512
*685 NAND2X1_294
*686 AND2X2_31
*687 NAND2X1_90
*688 NAND2X1_38
*689 cos_gamma[0_bF_buf4]
*690 BUFX2_5
*691 NAND3X1_428
*692 NAND3X1_484
*693 NAND3X1_309
*694 NAND3X1_157
*695 NAND3X1_25
*696 NAND2X1_1
*697 cos_gamma[0_bF_buf3]
*698 BUFX2_6
*699 NAND3X1_311
*700 NAND3X1_204
*701 NAND3X1_61
*702 INVX1_7
*703 NAND3X1_430
*704 NAND3X1_529
*705 cos_alpha[1_bF_buf3]
*706 BUFX2_14
*707 INVX1_10
*708 AND2X2_43
*709 AOI22X1_40
*710 NAND3X1_74
*711 AOI22X1_6
*712 NAND2X1_39
*713 cos_alpha[1_bF_buf2]
*714 BUFX2_15
*715 AND2X2_37
*716 AND2X2_76
*717 NAND2X1_233
*718 AND2X2_24
*719 AND2X2_12
*720 NAND2X1_5
*721 cos_alpha[1_bF_buf1]
*722 BUFX2_16
*723 NAND2X1_143
*724 NAND2X1_344
*725 AND2X2_52
*726 NAND3X1_44
*727 AOI22X1_5
*728 NAND2X1_11
*729 cos_alpha[1_bF_buf0]
*730 BUFX2_17
*731 NAND2X1_116
*732 NAND2X1_89
*733 NAND2X1_25
*734 NAND3X1_124
*735 NAND2X1_470
*736 NAND2X1_292
*737 vertices[0]
*738 NAND3X1_462
*739 INVX1_2
*740 NAND2X1_220
*741 AOI22X1_10
*742 NAND2X1_84
*743 NAND3X1_515
*744 _1245_
*745 INVX1_27
*746 NAND3X1_339
*747 NAND2X1_359
*748 NAND2X1_199
*749 NAND2X1_32
*750 NAND2X1_22
*751 NAND2X1_492
*752 _2045_
*753 INVX1_46
*754 OAI21X1_228
*755 OAI22X1_9
*756 OAI21X1_142
*757 OAI22X1_4
*758 OAI21X1_69
*759 OAI22X1_2
*760 _2166_
*761 INVX1_50
*762 OAI21X1_334
*763 NOR2X1_144
*764 OAI21X1_142
*765 OAI21X1_24
*766 OAI21X1_98
*767 OAI21X1_44
*768 _2292_
*769 INVX1_73
*770 OAI21X1_394
*771 OAI21X1_272
*772 NOR2X1_104
*773 OAI21X1_45
*774 OAI21X1_43
*775 OAI21X1_437
*776 _2332_
*777 NAND2X1_70
*778 AOI22X1_15
*779 NAND2X1_127
*780 NAND3X1_223
*781 NAND2X1_257
*782 NAND2X1_436
*783 AOI21X1_16
*784 cos_gamma[6]
*785 NAND2X1_77
*786 INVX1_91
*787 NAND2X1_363
*788 NAND2X1_438
*789 NAND2X1_535
*790 NAND2X1_311
*791 _2472_
*792 NAND3X1_52
*793 NAND3X1_53
*794 NAND3X1_92
*795 INVX1_125
*796 NAND3X1_90
*797 AOI21X1_71
*798 NAND3X1_58
*799 _2489_
*800 NAND3X1_61
*801 OAI21X1_81
*802 OR2X2_11
*803 AND2X2_25
*804 NOR2X1_61
*805 OAI21X1_133
*806 INVX1_129
*807 _2535_
*808 INVX1_114
*809 OAI21X1_317
*810 NOR2X1_111
*811 OAI21X1_373
*812 OAI21X1_88
*813 NOR2X1_67
*814 NOR2X1_83
*815 _2776_
*816 INVX1_144
*817 NOR2X1_86
*818 OAI21X1_180
*819 OAI21X1_445
*820 NOR2X1_144
*821 OAI21X1_334
*822 OAI21X1_394
*823 _2862_
*824 NAND3X1_141
*825 NAND3X1_148
*826 NAND3X1_142
*827 NAND3X1_143
*828 NAND3X1_195
*829 NAND3X1_197
*830 INVX1_173
*831 cos_alpha[9]
*832 NAND2X1_332
*833 NAND2X1_219
*834 NAND2X1_387
*835 NAND2X1_503
*836 INVX1_174
*837 NAND2X1_281
*838 _124_
*839 NAND2X1_170
*840 NAND3X1_245
*841 AND2X2_45
*842 NAND2X1_171
*843 OAI21X1_266
*844 INVX1_202
*845 NAND3X1_247
*846 _156_
*847 INVX1_177
*848 OAI21X1_228
*849 OAI21X1_184
*850 NOR2X1_124
*851 OAI21X1_445
*852 OAI21X1_391
*853 OAI21X1_332
*854 _213_
*855 NAND3X1_192
*856 NAND3X1_197
*857 NAND3X1_193
*858 NAND3X1_251
*859 INVX1_201
*860 NAND3X1_249
*861 AOI21X1_151
*862 _220_
*863 NAND3X1_193
*864 AOI21X1_107
*865 NAND3X1_200
*866 NAND3X1_196
*867 NAND3X1_250
*868 INVX1_216
*869 NAND3X1_255
*870 cos_alpha[10]
*871 NAND2X1_282
*872 NAND2X1_334
*873 NAND2X1_388
*874 NAND2X1_220
*875 NAND2X1_457
*876 INVX1_203
*877 _503_
*878 NAND3X1_254
*879 AND2X2_78
*880 INVX1_239
*881 NAND3X1_308
*882 NAND2X1_241
*883 NAND3X1_310
*884 NAND2X1_349
*885 _678_
*886 INVX1_241
*887 OAI21X1_439
*888 OAI21X1_326
*889 NOR2X1_141
*890 NOR2X1_118
*891 OAI21X1_327
*892 OAI21X1_385
*893 vertices[11]
*894 NAND2X1_294
*895 INVX1_245
*896 NAND2X1_465
*897 AND2X2_63
*898 AOI22X1_40
*899 NAND2X1_292
*900 _873_
*901 NAND3X1_332
*902 NAND3X1_336
*903 NAND3X1_393
*904 INVX1_297
*905 AOI21X1_193
*906 AOI22X1_38
*907 NAND3X1_333
*908 _1456_
*909 NAND2X1_409
*910 AOI21X1_227
*911 INVX1_323
*912 NAND2X1_412
*913 NAND3X1_479
*914 NAND3X1_477
*915 NAND3X1_427
*916 _1765_
*917 AOI21X1_224
*918 OAI21X1_457
*919 OAI21X1_455
*920 AND2X2_107
*921 NOR2X1_195
*922 NAND2X1_528
*923 OR2X2_58
*924 cos_gamma[0]
*925 BUFX2_7
*926 BUFX2_6
*927 BUFX2_8
*928 BUFX2_9
*929 BUFX2_5
*930 cos_gamma[0_bF_buf2]
*931 BUFX2_7
*932 NAND3X1_432
*933 NAND3X1_313
*934 NAND3X1_206
*935 NAND3X1_2
*936 NAND3X1_101
*937 cos_gamma[0_bF_buf1]
*938 BUFX2_8
*939 NAND3X1_366
*940 NAND3X1_480
*941 NAND3X1_256
*942 NAND2X1_26
*943 NAND3X1_153
*944 cos_gamma[0_bF_buf0]
*945 BUFX2_9
*946 NAND3X1_369
*947 NAND3X1_482
*948 NAND3X1_257
*949 NAND3X1_156
*950 AOI21X1_16
*951 cos_alpha[2_bF_buf3]
*952 BUFX2_10
*953 AOI22X1_11
*954 NAND2X1_65
*955 INVX1_15
*956 NAND2X1_234
*957 NAND2X1_511
*958 _2207_
*959 AND2X2_13
*960 NAND2X1_103
*961 NAND2X1_47
*962 NAND2X1_362
*963 NAND3X1_397
*964 NAND2X1_126
*965 _2366_
*966 NAND3X1_32
*967 AOI22X1_4
*968 NAND3X1_33
*969 OAI21X1_85
*970 NOR3X1_12
*971 INVX1_112
*972 _2418_
*973 INVX1_98
*974 NAND3X1_89
*975 AOI21X1_68
*976 NAND3X1_84
*977 OR2X2_10
*978 NOR2X1_59
*979 _2486_
*980 NAND3X1_58
*981 AOI21X1_34
*982 AOI21X1_56
*983 NAND3X1_60
*984 NAND3X1_94
*985 NAND3X1_96
*986 _2508_
*987 NAND3X1_64
*988 OAI21X1_115
*989 AOI21X1_50
*990 NAND2X1_96
*991 NAND3X1_65
*992 INVX1_118
*993 cos_gamma[7]
*994 NAND2X1_156
*995 NAND2X1_257
*996 INVX1_114
*997 NAND2X1_440
*998 NAND2X1_364
*999 _2649_
*1000 NAND3X1_87
*1001 NAND3X1_96
*1002 NAND3X1_91
*1003 NAND3X1_143
*1004 NAND3X1_149
*1005 AOI21X1_83
*1006 _2783_
*1007 INVX1_148
*1008 OAI21X1_137
*1009 OAI21X1_138
*1010 OAI21X1_332
*1011 OAI21X1_443
*1012 OAI21X1_272
*1013 _2817_
*1014 INVX1_153
*1015 OAI22X1_6
*1016 OAI21X1_187
*1017 OAI21X1_146
*1018 OAI21X1_277
*1019 OAI21X1_443
*1020 _6_
*1021 NAND3X1_154
*1022 NAND3X1_203
*1023 NAND2X1_168
*1024 NAND3X1_202
*1025 NOR2X1_107
*1026 NAND3X1_156
*1027 _94_
*1028 NAND2X1_161
*1029 OAI21X1_171
*1030 OAI21X1_214
*1031 OR2X2_19
*1032 OAI21X1_262
*1033 OAI21X1_216
*1034 _286_
*1035 NAND3X1_217
*1036 NAND2X1_191
*1037 OAI21X1_207
*1038 AOI21X1_104
*1039 NAND3X1_218
*1040 AND2X2_57
*1041 _314_
*1042 INVX1_194
*1043 NOR2X1_100
*1044 OAI21X1_209
*1045 NOR2X1_131
*1046 OAI21X1_370
*1047 OAI22X1_8
*1048 _360_
*1049 NAND3X1_224
*1050 OAI21X1_261
*1051 AND2X2_61
*1052 NAND2X1_249
*1053 AND2X2_54
*1054 AOI22X1_28
*1055 _378_
*1056 NAND2X1_219
*1057 NOR2X1_102
*1058 OAI21X1_221
*1059 OAI21X1_270
*1060 OAI21X1_269
*1061 NOR2X1_140
*1062 vertices[10]
*1063 NAND2X1_235
*1064 AND2X2_52
*1065 INVX1_210
*1066 NAND2X1_406
*1067 NAND2X1_342
*1068 _435_
*1069 INVX1_210
*1070 NOR2X1_188
*1071 OAI21X1_281
*1072 OAI22X1_9
*1073 OAI21X1_282
*1074 OAI21X1_231
*1075 _509_
*1076 OAI21X1_242
*1077 AOI22X1_41
*1078 NAND3X1_257
*1079 NAND3X1_310
*1080 NAND2X1_245
*1081 NAND3X1_308
*1082 _591_
*1083 OR2X2_27
*1084 NAND2X1_254
*1085 AOI22X1_37
*1086 NAND3X1_394
*1087 INVX1_258
*1088 NAND3X1_392
*1089 cos_gamma[11]
*1090 NAND3X1_279
*1091 NAND3X1_398
*1092 NAND3X1_339
*1093 NAND2X1_437
*1094 INVX1_226
*1095 _596_
*1096 INVX1_226
*1097 OAI21X1_257
*1098 OAI21X1_315
*1099 NOR2X1_199
*1100 OAI21X1_423
*1101 OAI21X1_371
*1102 _682_
*1103 NAND2X1_282
*1104 NOR2X1_158
*1105 XOR2X1_23
*1106 NOR2X1_140
*1107 OAI21X1_269
*1108 OAI21X1_324
*1109 _719_
*1110 NAND2X1_290
*1111 OAI21X1_339
*1112 NOR2X1_148
*1113 AND2X2_75
*1114 OAI21X1_278
*1115 NOR2X1_146
*1116 _807_
*1117 NAND2X1_297
*1118 NAND3X1_313
*1119 NAND3X1_309
*1120 AOI21X1_219
*1121 NAND2X1_329
*1122 AOI22X1_45
*1123 _912_
*1124 NAND2X1_307
*1125 INVX1_329
*1126 NAND3X1_450
*1127 AOI21X1_214
*1128 NAND2X1_309
*1129 AOI22X1_43
*1130 _930_
*1131 NAND2X1_311
*1132 NOR2X1_133
*1133 OAI21X1_317
*1134 OAI21X1_372
*1135 OAI21X1_374
*1136 NOR2X1_166
*1137 vertices[12]
*1138 NAND2X1_510
*1139 NAND2X1_344
*1140 AND2X2_76
*1141 NAND2X1_468
*1142 AOI22X1_40
*1143 _1081_
*1144 NAND2X1_344
*1145 OAI21X1_397
*1146 AND2X2_90
*1147 NOR2X1_160
*1148 OR2X2_40
*1149 NOR2X1_149
*1150 _1156_
*1151 NAND2X1_353
*1152 OAI21X1_501
*1153 NOR2X1_196
*1154 NOR2X1_174
*1155 OAI21X1_355
*1156 OAI21X1_356
*1157 _1396_
*1158 NAND2X1_407
*1159 OAI21X1_451
*1160 AND2X2_90
*1161 NOR2X1_160
*1162 OAI21X1_489
*1163 OR2X2_40
*1164 _1482_
*1165 NAND3X1_434
*1166 NAND3X1_438
*1167 NAND3X1_435
*1168 AOI22X1_55
*1169 NAND2X1_453
*1170 AOI22X1_54
*1171 _1966_
*1172 NAND2X1_509
*1173 XOR2X1_49
*1174 XNOR2X1_75
*1175 NAND2X1_515
*1176 NOR2X1_190
*1177 INVX1_372
*1178 _2117_
*1179 NAND3X1_536
*1180 AOI22X1_59
*1181 NAND3X1_537
*1182 NAND3X1_540
*1183 NAND2X1_542
*1184 AOI21X1_261
*1185 _2123_
*1186 OAI21X1_508
*1187 AOI22X1_59
*1188 NAND3X1_537
*1189 AOI21X1_261
*1190 NAND2X1_542
*1191 NAND3X1_540
*1192 _2128_
*1193 AOI21X1_258
*1194 XNOR2X1_84
*1195 XNOR2X1_83
*1196 NOR3X1_48
*1197 OAI21X1_510
*1198 INVX1_381
*1199 cos_alpha[0]
*1200 BUFX2_1
*1201 BUFX2_3
*1202 BUFX2_2
*1203 BUFX2_4
*1204 cos_alpha[2]
*1205 BUFX2_10
*1206 BUFX2_12
*1207 BUFX2_13
*1208 BUFX2_11
*1209 cos_alpha[2_bF_buf2]
*1210 BUFX2_11
*1211 NAND2X1_88
*1212 NAND2X1_24
*1213 AOI22X1_17
*1214 NAND2X1_291
*1215 cos_alpha[2_bF_buf1]
*1216 BUFX2_12
*1217 AOI22X1_8
*1218 NAND2X1_40
*1219 NAND2X1_144
*1220 NAND2X1_342
*1221 cos_alpha[2_bF_buf0]
*1222 BUFX2_13
*1223 AOI22X1_3
*1224 NAND2X1_115
*1225 NAND2X1_468
*1226 NAND2X1_178
*1227 cos_alpha[1]
*1228 BUFX2_14
*1229 BUFX2_16
*1230 BUFX2_15
*1231 BUFX2_17
*1232 _381_
*1233 NAND2X1_5
*1234 OAI21X1_6
*1235 NOR2X1_15
*1236 OAI21X1_2
*1237 OR2X2_3
*1238 _687_
*1239 INVX1_15
*1240 OAI21X1_26
*1241 OAI21X1_8
*1242 NOR2X1_16
*1243 NOR2X1_159
*1244 _1169_
*1245 NAND2X1_21
*1246 OAI21X1_21
*1247 NOR2X1_23
*1248 NOR2X1_43
*1249 OAI21X1_38
*1250 _1410_
*1251 NOR2X1_26
*1252 INVX1_30
*1253 NAND2X1_60
*1254 AOI21X1_2
*1255 OAI21X1_17
*1256 _1498_
*1257 NAND2X1_26
*1258 INVX1_67
*1259 OAI21X1_28
*1260 NOR2X1_31
*1261 XNOR2X1_5
*1262 _1793_
*1263 INVX1_37
*1264 OAI21X1_21
*1265 OAI21X1_62
*1266 NOR2X1_43
*1267 OAI21X1_38
*1268 _2189_
*1269 AND2X2_12
*1270 OAI21X1_45
*1271 NAND2X1_64
*1272 NAND2X1_41
*1273 AOI22X1_2
*1274 _2192_
*1275 NAND3X1_5
*1276 OAI21X1_40
*1277 INVX1_75
*1278 AOI21X1_4
*1279 NAND3X1_6
*1280 _2229_
*1281 NAND3X1_9
*1282 OAI21X1_34
*1283 AOI21X1_6
*1284 NAND3X1_10
*1285 INVX1_62
*1286 _2274_
*1287 NAND2X1_60
*1288 NAND3X1_22
*1289 NAND3X1_37
*1290 INVX1_77
*1291 OAI21X1_67
*1292 _2295_
*1293 NAND2X1_65
*1294 OAI21X1_71
*1295 INVX1_74
*1296 AOI21X1_11
*1297 NAND3X1_16
*1298 _2313_
*1299 NAND3X1_20
*1300 AOI21X1_20
*1301 NAND3X1_21
*1302 INVX1_76
*1303 NAND3X1_23
*1304 _2314_
*1305 NAND3X1_21
*1306 OAI21X1_67
*1307 INVX1_104
*1308 NAND3X1_36
*1309 NAND3X1_22
*1310 _2325_
*1311 NAND2X1_68
*1312 NAND2X1_83
*1313 INVX1_78
*1314 OAI21X1_53
*1315 NAND2X1_69
*1316 _2326_
*1317 NOR3X1_2
*1318 OAI21X1_52
*1319 OAI21X1_53
*1320 NOR2X1_48
*1321 NAND3X1_38
*1322 _2327_
*1323 AOI21X1_15
*1324 NOR2X1_48
*1325 OAI21X1_53
*1326 OAI21X1_52
*1327 NAND2X1_83
*1328 _2382_
*1329 INVX1_92
*1330 NOR3X1_11
*1331 OAI21X1_122
*1332 NAND2X1_78
*1333 OAI21X1_124
*1334 _2394_
*1335 XNOR2X1_15
*1336 AND2X2_20
*1337 NOR2X1_55
*1338 NAND2X1_81
*1339 OR2X2_9
*1340 _2395_
*1341 AOI21X1_19
*1342 OR2X2_9
*1343 NAND2X1_81
*1344 NOR2X1_55
*1345 AND2X2_20
*1346 _2402_
*1347 AND2X2_21
*1348 AOI21X1_50
*1349 INVX1_110
*1350 NAND3X1_65
*1351 AOI21X1_32
*1352 _2417_
*1353 NAND2X1_85
*1354 INVX1_98
*1355 OAI21X1_134
*1356 NAND3X1_86
*1357 NAND3X1_88
*1358 _2434_
*1359 NAND2X1_88
*1360 INVX1_100
*1361 OAI21X1_100
*1362 AOI21X1_22
*1363 OAI21X1_72
*1364 _2488_
*1365 NAND3X1_60
*1366 NAND3X1_61
*1367 NAND3X1_95
*1368 NAND3X1_100
*1369 AOI21X1_72
*1370 _2505_
*1371 NAND3X1_63
*1372 NAND2X1_107
*1373 AND2X2_33
*1374 INVX1_109
*1375 NAND3X1_64
*1376 _2511_
*1377 OAI21X1_83
*1378 AOI21X1_50
*1379 NAND2X1_96
*1380 NAND3X1_65
*1381 AOI21X1_32
*1382 _2523_
*1383 NOR2X1_65
*1384 NOR2X1_66
*1385 NAND3X1_112
*1386 OAI21X1_85
*1387 NOR3X1_12
*1388 _2524_
*1389 AOI21X1_30
*1390 INVX1_113
*1391 NOR2X1_66
*1392 NOR3X1_12
*1393 OAI21X1_85
*1394 _2544_
*1395 INVX1_117
*1396 NOR3X1_17
*1397 NAND2X1_102
*1398 OAI21X1_164
*1399 OAI21X1_162
*1400 _2546_
*1401 NAND2X1_102
*1402 NOR3X1_9
*1403 OAI21X1_125
*1404 INVX1_133
*1405 OAI21X1_117
*1406 _2580_
*1407 NAND2X1_108
*1408 OAI21X1_138
*1409 NOR2X1_74
*1410 INVX1_149
*1411 OAI21X1_177
*1412 _2581_
*1413 NOR2X1_74
*1414 NOR2X1_75
*1415 NAND3X1_133
*1416 INVX1_151
*1417 NAND3X1_119
*1418 _2593_
*1419 AND2X2_29
*1420 NAND2X1_139
*1421 AOI22X1_23
*1422 NOR2X1_77
*1423 NAND2X1_113
*1424 _2602_
*1425 NAND2X1_115
*1426 OAI21X1_145
*1427 OAI21X1_101
*1428 INVX1_127
*1429 AOI21X1_39
*1430 _2603_
*1431 NAND2X1_116
*1432 NAND3X1_73
*1433 NOR2X1_78
*1434 OAI21X1_102
*1435 AND2X2_30
*1436 _2640_
*1437 NAND3X1_83
*1438 OAI21X1_134
*1439 NAND3X1_88
*1440 INVX1_156
*1441 NAND3X1_84
*1442 _2653_
*1443 NAND3X1_91
*1444 NAND3X1_146
*1445 NAND3X1_99
*1446 NAND3X1_95
*1447 NAND3X1_150
*1448 _2663_
*1449 NAND3X1_99
*1450 NAND3X1_147
*1451 NAND3X1_155
*1452 AOI21X1_106
*1453 NAND3X1_101
*1454 _2669_
*1455 AOI21X1_44
*1456 NAND3X1_153
*1457 NAND2X1_121
*1458 NAND2X1_151
*1459 INVX1_142
*1460 _2672_
*1461 NAND3X1_104
*1462 AOI21X1_46
*1463 NAND3X1_105
*1464 OAI21X1_133
*1465 AND2X2_36
*1466 _2722_
*1467 NAND3X1_112
*1468 AOI22X1_16
*1469 NAND3X1_113
*1470 NOR3X1_19
*1471 OAI21X1_163
*1472 cos_gamma[8]
*1473 NAND3X1_222
*1474 NAND2X1_536
*1475 INVX1_167
*1476 NAND2X1_124
*1477 _2750_
*1478 NAND2X1_127
*1479 OAI21X1_214
*1480 OR2X2_19
*1481 OR2X2_18
*1482 OAI21X1_131
*1483 _2763_
*1484 NAND3X1_114
*1485 OAI21X1_169
*1486 NAND2X1_133
*1487 AND2X2_39
*1488 AOI22X1_22
*1489 _2779_
*1490 INVX1_146
*1491 OAI21X1_391
*1492 OAI21X1_223
*1493 OAI21X1_178
*1494 OAI21X1_136
*1495 _2821_
*1496 NAND2X1_144
*1497 NAND3X1_125
*1498 INVX1_154
*1499 OAI21X1_186
*1500 AOI21X1_63
*1501 _2834_
*1502 NAND3X1_129
*1503 OAI21X1_183
*1504 INVX1_181
*1505 AOI22X1_18
*1506 NAND3X1_130
*1507 _2837_
*1508 NAND3X1_131
*1509 OAI21X1_176
*1510 AOI22X1_19
*1511 NAND3X1_136
*1512 INVX1_182
*1513 _2859_
*1514 NAND3X1_139
*1515 AOI21X1_69
*1516 NAND3X1_140
*1517 OAI21X1_175
*1518 INVX1_183
*1519 _39_
*1520 NAND3X1_165
*1521 INVX1_162
*1522 OAI21X1_165
*1523 AOI21X1_77
*1524 NAND3X1_166
*1525 _57_
*1526 NOR3X1_18
*1527 NAND3X1_220
*1528 AOI21X1_105
*1529 NOR3X1_19
*1530 OAI21X1_163
*1531 _70_
*1532 NAND2X1_155
*1533 OAI21X1_253
*1534 XNOR2X1_25
*1535 INVX1_193
*1536 OAI21X1_210
*1537 _76_
*1538 NAND2X1_156
*1539 XNOR2X1_30
*1540 OAI21X1_258
*1541 OAI21X1_211
*1542 OAI21X1_167
*1543 _88_
*1544 OR2X2_17
*1545 AOI22X1_30
*1546 AND2X2_47
*1547 AOI22X1_26
*1548 NAND2X1_159
*1549 _101_
*1550 AND2X2_40
*1551 OR2X2_20
*1552 NAND2X1_163
*1553 NOR2X1_94
*1554 AND2X2_41
*1555 _104_
*1556 OAI21X1_173
*1557 OR2X2_20
*1558 NAND2X1_163
*1559 NOR2X1_94
*1560 AND2X2_41
*1561 _135_
*1562 OAI21X1_179
*1563 OAI21X1_180
*1564 NOR2X1_96
*1565 OR2X2_22
*1566 AND2X2_42
*1567 _168_
*1568 INVX1_179
*1569 OAI21X1_188
*1570 OAI22X1_6
*1571 OAI21X1_339
*1572 OAI21X1_448
*1573 _183_
*1574 NAND3X1_180
*1575 OAI21X1_227
*1576 NAND3X1_181
*1577 AOI21X1_90
*1578 INVX1_212
*1579 _187_
*1580 NAND3X1_182
*1581 OAI21X1_222
*1582 INVX1_213
*1583 AOI21X1_92
*1584 NAND3X1_187
*1585 _232_
*1586 NAND2X1_183
*1587 NAND2X1_185
*1588 NAND3X1_202
*1589 AOI21X1_108
*1590 NAND2X1_280
*1591 _246_
*1592 NAND3X1_207
*1593 AOI21X1_101
*1594 NAND3X1_208
*1595 AND2X2_48
*1596 OAI21X1_218
*1597 _263_
*1598 NAND3X1_209
*1599 AOI22X1_25
*1600 NAND3X1_212
*1601 AND2X2_53
*1602 NAND2X1_207
*1603 _277_
*1604 NAND3X1_212
*1605 AND2X2_53
*1606 NAND3X1_213
*1607 NAND3X1_215
*1608 NAND2X1_207
*1609 _281_
*1610 NAND3X1_215
*1611 AOI22X1_26
*1612 NAND3X1_216
*1613 NAND2X1_196
*1614 AND2X2_56
*1615 _294_
*1616 NAND3X1_219
*1617 AOI21X1_105
*1618 NAND3X1_220
*1619 NAND2X1_192
*1620 NAND3X1_275
*1621 _308_
*1622 OAI21X1_208
*1623 INVX1_223
*1624 NAND3X1_271
*1625 AOI21X1_157
*1626 AOI21X1_127
*1627 _339_
*1628 NAND2X1_205
*1629 NAND2X1_206
*1630 AND2X2_55
*1631 AOI22X1_29
*1632 AND2X2_59
*1633 _346_
*1634 NAND2X1_209
*1635 OAI21X1_262
*1636 OAI21X1_216
*1637 NAND2X1_268
*1638 OR2X2_31
*1639 _351_
*1640 NAND2X1_210
*1641 NAND2X1_215
*1642 INVX1_199
*1643 NAND2X1_213
*1644 OAI21X1_261
*1645 _376_
*1646 OAI21X1_220
*1647 AOI21X1_130
*1648 NAND3X1_242
*1649 OAI21X1_240
*1650 INVX1_215
*1651 _386_
*1652 NAND2X1_222
*1653 NAND2X1_223
*1654 AOI21X1_149
*1655 NAND3X1_302
*1656 INVX1_240
*1657 _388_
*1658 NAND2X1_223
*1659 INVX1_214
*1660 OAI21X1_267
*1661 NAND3X1_239
*1662 AOI21X1_122
*1663 _396_
*1664 NAND2X1_226
*1665 OAI21X1_223
*1666 OAI21X1_273
*1667 NOR2X1_120
*1668 NOR2X1_142
*1669 _404_
*1670 NOR2X1_103
*1671 OAI21X1_226
*1672 OAI21X1_225
*1673 OR2X2_29
*1674 NOR2X1_121
*1675 _419_
*1676 NAND2X1_232
*1677 OAI21X1_278
*1678 NOR2X1_146
*1679 OAI21X1_228
*1680 NOR2X1_122
*1681 _423_
*1682 NAND2X1_233
*1683 OAI21X1_231
*1684 INVX1_208
*1685 AND2X2_51
*1686 NOR2X1_105
*1687 _426_
*1688 AOI22X1_27
*1689 OAI21X1_233
*1690 NAND3X1_232
*1691 INVX1_211
*1692 NOR2X1_106
*1693 _427_
*1694 NAND2X1_234
*1695 NOR3X1_21
*1696 OAI21X1_230
*1697 OAI21X1_279
*1698 INVX1_209
*1699 _431_
*1700 OAI21X1_230
*1701 NAND3X1_232
*1702 AOI21X1_113
*1703 NAND3X1_229
*1704 NAND2X1_237
*1705 _433_
*1706 AND2X2_52
*1707 OAI21X1_283
*1708 NAND2X1_293
*1709 NOR2X1_126
*1710 NAND2X1_236
*1711 _438_
*1712 NAND3X1_228
*1713 NAND3X1_232
*1714 AOI21X1_113
*1715 NAND3X1_229
*1716 NAND2X1_237
*1717 _451_
*1718 NAND3X1_231
*1719 AOI21X1_118
*1720 NAND3X1_237
*1721 OAI21X1_271
*1722 INVX1_246
*1723 _476_
*1724 NAND3X1_240
*1725 OAI21X1_267
*1726 AOI21X1_121
*1727 NAND3X1_241
*1728 INVX1_247
*1729 _479_
*1730 NAND3X1_242
*1731 OAI21X1_266
*1732 INVX1_248
*1733 NAND3X1_243
*1734 NAND3X1_247
*1735 _489_
*1736 NAND3X1_246
*1737 NAND3X1_250
*1738 NAND3X1_254
*1739 NAND3X1_305
*1740 AOI22X1_41
*1741 _516_
*1742 AOI21X1_123
*1743 NAND2X1_244
*1744 AOI22X1_31
*1745 NAND2X1_298
*1746 NAND3X1_313
*1747 _530_
*1748 NAND3X1_261
*1749 NAND3X1_263
*1750 AND2X2_65
*1751 INVX1_222
*1752 NAND3X1_262
*1753 _534_
*1754 NAND3X1_262
*1755 NAND3X1_265
*1756 NAND2X1_266
*1757 AOI22X1_28
*1758 INVX1_253
*1759 _554_
*1760 NAND3X1_268
*1761 AOI22X1_29
*1762 INVX1_254
*1763 NAND3X1_269
*1764 NAND2X1_255
*1765 _558_
*1766 NAND3X1_270
*1767 AOI21X1_127
*1768 NAND3X1_271
*1769 NAND2X1_251
*1770 INVX1_255
*1771 _563_
*1772 NAND3X1_271
*1773 NAND2X1_251
*1774 NAND2X1_305
*1775 NAND3X1_274
*1776 NAND3X1_276
*1777 _569_
*1778 NAND3X1_274
*1779 NAND3X1_275
*1780 NAND3X1_278
*1781 NAND3X1_333
*1782 INVX1_256
*1783 _592_
*1784 NAND2X1_254
*1785 INVX1_225
*1786 AOI21X1_158
*1787 NAND3X1_331
*1788 OAI21X1_310
*1789 _614_
*1790 NAND2X1_257
*1791 NOR2X1_133
*1792 NOR2X1_114
*1793 OAI21X1_316
*1794 OAI21X1_372
*1795 _650_
*1796 NAND2X1_270
*1797 OAI21X1_319
*1798 NAND2X1_274
*1799 NAND2X1_272
*1800 INVX1_236
*1801 _652_
*1802 AOI22X1_31
*1803 NAND2X1_272
*1804 INVX1_237
*1805 NAND2X1_273
*1806 OAI21X1_319
*1807 _657_
*1808 NAND3X1_283
*1809 NAND2X1_301
*1810 AOI22X1_33
*1811 OAI21X1_319
*1812 AND2X2_72
*1813 cos_alpha[11]
*1814 NAND2X1_386
*1815 INVX1_241
*1816 NAND2X1_458
*1817 NAND2X1_504
*1818 _699_
*1819 NAND2X1_286
*1820 OAI21X1_332
*1821 OR2X2_32
*1822 NOR2X1_142
*1823 OAI21X1_273
*1824 _707_
*1825 NOR2X1_123
*1826 OR2X2_34
*1827 NOR2X1_143
*1828 OAI21X1_275
*1829 OAI21X1_274
*1830 _708_
*1831 OAI21X1_274
*1832 AOI21X1_166
*1833 INVX1_281
*1834 NAND3X1_292
*1835 NAND3X1_285
*1836 _724_