* XSpice netlist created from SPICE and liberty sources by spi2xspice.py
*SPICE netlist created from BLIF module CompBlock by blif2BSpice
.subckt CompBlock a_vdd a_gnd a_clk a_vertices_0_ a_vertices_1_ a_vertices_2_ a_vertices_3_ a_vertices_4_ a_vertices_5_ a_vertices_6_ a_vertices_7_ a_vertices_8_ a_vertices_9_ a_vertices_10_ a_vertices_11_ a_vertices_12_ a_vertices_13_ a_vertices_14_ a_vertices_15_ a_cos_alpha_0_ a_cos_alpha_1_ a_cos_alpha_2_ a_cos_alpha_3_ a_cos_alpha_4_ a_cos_alpha_5_ a_cos_alpha_6_ a_cos_alpha_7_ a_cos_alpha_8_ a_cos_alpha_9_ a_cos_alpha_10_ a_cos_alpha_11_ a_cos_alpha_12_ a_cos_alpha_13_ a_cos_alpha_14_ a_cos_alpha_15_ a_sin_alpha_0_ a_sin_alpha_1_ a_sin_alpha_2_ a_sin_alpha_3_ a_sin_alpha_4_ a_sin_alpha_5_ a_sin_alpha_6_ a_sin_alpha_7_ a_sin_alpha_8_ a_sin_alpha_9_ a_sin_alpha_10_ a_sin_alpha_11_ a_sin_alpha_12_ a_sin_alpha_13_ a_sin_alpha_14_ a_sin_alpha_15_ a_cos_beta_0_ a_cos_beta_1_ a_cos_beta_2_ a_cos_beta_3_ a_cos_beta_4_ a_cos_beta_5_ a_cos_beta_6_ a_cos_beta_7_ a_cos_beta_8_ a_cos_beta_9_ a_cos_beta_10_ a_cos_beta_11_ a_cos_beta_12_ a_cos_beta_13_ a_cos_beta_14_ a_cos_beta_15_ a_sin_beta_0_ a_sin_beta_1_ a_sin_beta_2_ a_sin_beta_3_ a_sin_beta_4_ a_sin_beta_5_ a_sin_beta_6_ a_sin_beta_7_ a_sin_beta_8_ a_sin_beta_9_ a_sin_beta_10_ a_sin_beta_11_ a_sin_beta_12_ a_sin_beta_13_ a_sin_beta_14_ a_sin_beta_15_ a_cos_gamma_0_ a_cos_gamma_1_ a_cos_gamma_2_ a_cos_gamma_3_ a_cos_gamma_4_ a_cos_gamma_5_ a_cos_gamma_6_ a_cos_gamma_7_ a_cos_gamma_8_ a_cos_gamma_9_ a_cos_gamma_10_ a_cos_gamma_11_ a_cos_gamma_12_ a_cos_gamma_13_ a_cos_gamma_14_ a_cos_gamma_15_ a_sin_gamma_0_ a_sin_gamma_1_ a_sin_gamma_2_ a_sin_gamma_3_ a_sin_gamma_4_ a_sin_gamma_5_ a_sin_gamma_6_ a_sin_gamma_7_ a_sin_gamma_8_ a_sin_gamma_9_ a_sin_gamma_10_ a_sin_gamma_11_ a_sin_gamma_12_ a_sin_gamma_13_ a_sin_gamma_14_ a_sin_gamma_15_ a_dx_0_ a_dx_1_ a_dx_2_ a_dx_3_ a_dx_4_ a_dx_5_ a_dx_6_ a_dx_7_ a_dx_8_ a_dx_9_ a_dx_10_ a_dx_11_ a_dx_12_ a_dx_13_ a_dx_14_ a_dx_15_ a_dy_0_ a_dy_1_ a_dy_2_ a_dy_3_ a_dy_4_ a_dy_5_ a_dy_6_ a_dy_7_ a_dy_8_ a_dy_9_ a_dy_10_ a_dy_11_ a_dy_12_ a_dy_13_ a_dy_14_ a_dy_15_ a_dz_0_ a_dz_1_ a_dz_2_ a_dz_3_ a_dz_4_ a_dz_5_ a_dz_6_ a_dz_7_ a_dz_8_ a_dz_9_ a_dz_10_ a_dz_11_ a_dz_12_ a_dz_13_ a_dz_14_ a_dz_15_ a_vertices_out_0_ a_vertices_out_1_ a_vertices_out_2_ a_vertices_out_3_ a_vertices_out_4_ a_vertices_out_5_ a_vertices_out_6_ a_vertices_out_7_ a_vertices_out_8_ a_vertices_out_9_ a_vertices_out_10_ a_vertices_out_11_ a_vertices_out_12_ a_vertices_out_13_ a_vertices_out_14_ a_vertices_out_15_
ABUFX2_1 [cos_alpha_0_] cos_alpha_0_bF$buf3_ d_lut_BUFX2
ABUFX2_2 [cos_alpha_0_] cos_alpha_0_bF$buf2_ d_lut_BUFX2
ABUFX2_3 [cos_alpha_0_] cos_alpha_0_bF$buf1_ d_lut_BUFX2
ABUFX2_4 [cos_alpha_0_] cos_alpha_0_bF$buf0_ d_lut_BUFX2
ABUFX2_5 [cos_gamma_0_] cos_gamma_0_bF$buf4_ d_lut_BUFX2
ABUFX2_6 [cos_gamma_0_] cos_gamma_0_bF$buf3_ d_lut_BUFX2
ABUFX2_7 [cos_gamma_0_] cos_gamma_0_bF$buf2_ d_lut_BUFX2
ABUFX2_8 [cos_gamma_0_] cos_gamma_0_bF$buf1_ d_lut_BUFX2
ABUFX2_9 [cos_gamma_0_] cos_gamma_0_bF$buf0_ d_lut_BUFX2
ABUFX2_10 [cos_alpha_2_] cos_alpha_2_bF$buf3_ d_lut_BUFX2
ABUFX2_11 [cos_alpha_2_] cos_alpha_2_bF$buf2_ d_lut_BUFX2
ABUFX2_12 [cos_alpha_2_] cos_alpha_2_bF$buf1_ d_lut_BUFX2
ABUFX2_13 [cos_alpha_2_] cos_alpha_2_bF$buf0_ d_lut_BUFX2
ABUFX2_14 [cos_alpha_1_] cos_alpha_1_bF$buf3_ d_lut_BUFX2
ABUFX2_15 [cos_alpha_1_] cos_alpha_1_bF$buf2_ d_lut_BUFX2
ABUFX2_16 [cos_alpha_1_] cos_alpha_1_bF$buf1_ d_lut_BUFX2
ABUFX2_17 [cos_alpha_1_] cos_alpha_1_bF$buf0_ d_lut_BUFX2
AINVX1_1 [cos_alpha_0_bF$buf3_] _130_ d_lut_INVX1
AINVX1_2 [vertices_0_] _141_ d_lut_INVX1
ANOR2X1_1 [_130_ _141_] _152_ d_lut_NOR2X1
ANAND2X1_1 [cos_gamma_0_bF$buf4_ _152_] _163_ d_lut_NAND2X1
AINVX1_3 [_163_] _174_ d_lut_INVX1
ANOR2X1_2 [dy_0_ dx_0_] _185_ d_lut_NOR2X1
AINVX1_4 [dy_0_] _196_ d_lut_INVX1
AINVX1_5 [dx_0_] _207_ d_lut_INVX1
ANOR2X1_3 [_196_ _207_] _218_ d_lut_NOR2X1
ANOR2X1_4 [_185_ _218_] _239_ d_lut_NOR2X1
ANAND2X1_2 [dz_0_ _239_] _250_ d_lut_NAND2X1
AOR2X2_1 [_239_ dz_0_] _261_ d_lut_OR2X2
AAND2X2_1 [_261_ _250_] _262_ d_lut_AND2X2
ANAND2X1_3 [_174_ _262_] _283_ d_lut_NAND2X1
AINVX1_6 [_283_] _284_ d_lut_INVX1
ANOR2X1_5 [_174_ _262_] _295_ d_lut_NOR2X1
ANOR2X1_6 [_295_ _284_] _0__0_ d_lut_NOR2X1
AINVX1_7 [cos_gamma_0_bF$buf3_] _315_ d_lut_INVX1
AINVX1_8 [cos_gamma_1_] _326_ d_lut_INVX1
AINVX1_9 [_152_] _337_ d_lut_INVX1
AINVX1_10 [cos_alpha_1_bF$buf3_] _358_ d_lut_INVX1
ANAND2X1_4 [cos_alpha_0_bF$buf2_ vertices_1_] _359_ d_lut_NAND2X1
AOAI21X1_1 [_141_ _358_ _359_] _370_ d_lut_OAI21X1
ANAND2X1_5 [vertices_1_ cos_alpha_1_bF$buf2_] _381_ d_lut_NAND2X1
AOAI21X1_2 [_381_ _337_ _370_] _392_ d_lut_OAI21X1
AOAI22X1_1 [_326_ _337_ _315_ _392_] _403_ d_lut_OAI22X1
ANOR2X1_7 [_326_ _392_] _414_ d_lut_NOR2X1
AINVX1_11 [_414_] _425_ d_lut_INVX1
AOAI21X1_3 [_163_ _425_ _403_] _436_ d_lut_OAI21X1
AOAI21X1_4 [_196_ _207_ _250_] _447_ d_lut_OAI21X1
ANOR2X1_8 [dy_1_ dx_1_] _468_ d_lut_NOR2X1
AINVX1_12 [dy_1_] _469_ d_lut_INVX1
AINVX1_13 [dx_1_] _480_ d_lut_INVX1
ANOR2X1_9 [_469_ _480_] _491_ d_lut_NOR2X1
ANOR2X1_10 [_468_ _491_] _502_ d_lut_NOR2X1
ANAND2X1_6 [dz_1_ _502_] _513_ d_lut_NAND2X1
AOR2X2_2 [_502_ dz_1_] _524_ d_lut_OR2X2
AAND2X2_2 [_524_ _513_] _535_ d_lut_AND2X2
AXNOR2X1_1 [_535_ _447_] _546_ d_lut_XNOR2X1
ANOR2X1_11 [_436_ _546_] _557_ d_lut_NOR2X1
AINVX1_14 [_557_] _568_ d_lut_INVX1
ANAND2X1_7 [_436_ _546_] _579_ d_lut_NAND2X1
AAND2X2_3 [_568_ _579_] _589_ d_lut_AND2X2
AAND2X2_4 [_589_ _284_] _600_ d_lut_AND2X2
ANOR2X1_12 [_284_ _589_] _611_ d_lut_NOR2X1
ANOR2X1_13 [_611_ _600_] _0__1_ d_lut_NOR2X1
ANOR2X1_14 [_163_ _425_] _632_ d_lut_NOR2X1
ANAND2X1_8 [_447_ _535_] _643_ d_lut_NAND2X1
AOAI21X1_5 [_436_ _546_ _643_] _654_ d_lut_OAI21X1
ANAND2X1_9 [cos_gamma_2_ _152_] _665_ d_lut_NAND2X1
ANOR2X1_15 [_381_ _337_] _676_ d_lut_NOR2X1
AINVX1_15 [cos_alpha_2_bF$buf3_] _687_ d_lut_INVX1
ANOR2X1_16 [_141_ _687_] _698_ d_lut_NOR2X1
ANAND2X1_10 [cos_alpha_0_bF$buf1_ vertices_2_] _709_ d_lut_NAND2X1
AOR2X2_3 [_381_ _709_] _720_ d_lut_OR2X2
AINVX1_16 [vertices_2_] _741_ d_lut_INVX1
AOAI21X1_6 [_130_ _741_ _381_] _742_ d_lut_OAI21X1
ANAND3X1_1 [_698_ _742_ _720_] _753_ d_lut_NAND3X1
ANAND2X1_11 [cos_alpha_1_bF$buf1_ vertices_2_] _764_ d_lut_NAND2X1
AOAI21X1_7 [_359_ _764_ _742_] _775_ d_lut_OAI21X1
AOAI21X1_8 [_141_ _687_ _775_] _786_ d_lut_OAI21X1
AAND2X2_5 [_786_ _753_] _797_ d_lut_AND2X2
ANOR2X1_17 [_676_ _797_] _808_ d_lut_NOR2X1
ANAND2X1_12 [_676_ _797_] _819_ d_lut_NAND2X1
AINVX1_17 [_819_] _830_ d_lut_INVX1
ANOR2X1_18 [_808_ _830_] _841_ d_lut_NOR2X1
AINVX1_18 [_841_] _852_ d_lut_INVX1
AOAI21X1_9 [_315_ _852_ _425_] _863_ d_lut_OAI21X1
ANAND3X1_2 [cos_gamma_0_bF$buf2_ _414_ _841_] _874_ d_lut_NAND3X1
ANAND2X1_13 [_874_ _863_] _885_ d_lut_NAND2X1
AXOR2X1_1 [_885_ _665_] _895_ d_lut_XOR2X1
AOAI21X1_10 [_469_ _480_ _513_] _906_ d_lut_OAI21X1
AINVX1_19 [dz_2_] _917_ d_lut_INVX1
ANOR2X1_19 [dy_2_ dx_2_] _938_ d_lut_NOR2X1
ANAND2X1_14 [dy_2_ dx_2_] _949_ d_lut_NAND2X1
AINVX1_20 [_949_] _960_ d_lut_INVX1
ANOR2X1_20 [_938_ _960_] _961_ d_lut_NOR2X1
AXNOR2X1_2 [_961_ _917_] _982_ d_lut_XNOR2X1
ANAND2X1_15 [_982_ _906_] _983_ d_lut_NAND2X1
AOR2X2_4 [_906_ _982_] _994_ d_lut_OR2X2
ANAND2X1_16 [_983_ _994_] _1005_ d_lut_NAND2X1
AXNOR2X1_3 [_895_ _1005_] _1016_ d_lut_XNOR2X1
AXOR2X1_2 [_1016_ _654_] _1027_ d_lut_XOR2X1
AXOR2X1_3 [_1027_ _632_] _1038_ d_lut_XOR2X1
ANAND2X1_17 [_600_ _1038_] _1059_ d_lut_NAND2X1
AINVX1_21 [_1059_] _1060_ d_lut_INVX1
ANOR2X1_21 [_600_ _1038_] _1071_ d_lut_NOR2X1
ANOR2X1_22 [_1071_ _1060_] _0__2_ d_lut_NOR2X1
ANAND2X1_18 [_654_ _1016_] _1092_ d_lut_NAND2X1
ANAND2X1_19 [_632_ _1027_] _1103_ d_lut_NAND2X1
ANAND2X1_20 [_1092_ _1103_] _1114_ d_lut_NAND2X1
AINVX1_22 [cos_gamma_3_] _1125_ d_lut_INVX1
AOAI21X1_11 [_665_ _885_ _874_] _1136_ d_lut_OAI21X1
AINVX1_23 [_1136_] _1147_ d_lut_INVX1
AOAI21X1_12 [_1125_ _337_ _1147_] _1158_ d_lut_OAI21X1
ANAND2X1_21 [cos_gamma_3_ _152_] _1169_ d_lut_NAND2X1
ANOR2X1_23 [_1169_ _1147_] _1190_ d_lut_NOR2X1
AINVX1_24 [_1190_] _1191_ d_lut_INVX1
AAND2X2_6 [_1191_ _1158_] _1202_ d_lut_AND2X2
AINVX1_25 [_895_] _1213_ d_lut_INVX1
AOAI21X1_13 [_1005_ _1213_ _983_] _1224_ d_lut_OAI21X1
AINVX1_26 [_1224_] _1234_ d_lut_INVX1
AINVX1_27 [_392_] _1245_ d_lut_INVX1
ANAND2X1_22 [cos_gamma_2_ _1245_] _1256_ d_lut_NAND2X1
ANAND2X1_23 [cos_gamma_1_ _841_] _1267_ d_lut_NAND2X1
AINVX1_28 [cos_alpha_3_] _1278_ d_lut_INVX1
AAND2X2_7 [_753_ _720_] _1289_ d_lut_AND2X2
ANAND2X1_24 [vertices_1_ cos_alpha_2_bF$buf2_] _1300_ d_lut_NAND2X1
ANAND2X1_25 [cos_alpha_1_bF$buf0_ vertices_3_] _1311_ d_lut_NAND2X1
AINVX1_29 [vertices_3_] _1322_ d_lut_INVX1
AOAI21X1_14 [_130_ _1322_ _764_] _1333_ d_lut_OAI21X1
AOAI21X1_15 [_709_ _1311_ _1333_] _1344_ d_lut_OAI21X1
AXNOR2X1_4 [_1344_ _1300_] _1355_ d_lut_XNOR2X1
ANOR2X1_24 [_1289_ _1355_] _1366_ d_lut_NOR2X1
AAND2X2_8 [_1355_ _1289_] _1377_ d_lut_AND2X2
ANOR2X1_25 [_1366_ _1377_] _1388_ d_lut_NOR2X1
AOAI21X1_16 [_141_ _1278_ _1388_] _1399_ d_lut_OAI21X1
ANOR2X1_26 [_141_ _1278_] _1410_ d_lut_NOR2X1
AOAI21X1_17 [_1366_ _1377_ _1410_] _1421_ d_lut_OAI21X1
ANAND3X1_3 [_819_ _1421_ _1399_] _1432_ d_lut_NAND3X1
AINVX1_30 [_1410_] _1443_ d_lut_INVX1
AAND2X2_9 [_1388_ _1443_] _1454_ d_lut_AND2X2
AINVX1_31 [_1421_] _1465_ d_lut_INVX1
AOAI21X1_18 [_1465_ _1454_ _830_] _1476_ d_lut_OAI21X1
AAND2X2_10 [_1476_ _1432_] _1487_ d_lut_AND2X2
ANAND2X1_26 [cos_gamma_0_bF$buf1_ _1487_] _1498_ d_lut_NAND2X1
AXNOR2X1_5 [_1498_ _1267_] _1509_ d_lut_XNOR2X1
AXNOR2X1_6 [_1509_ _1256_] _1530_ d_lut_XNOR2X1
AOAI21X1_19 [_917_ _938_ _949_] _1531_ d_lut_OAI21X1
AINVX1_32 [dz_3_] _1542_ d_lut_INVX1
ANOR2X1_27 [dy_3_ dx_3_] _1552_ d_lut_NOR2X1
ANAND2X1_27 [dy_3_ dx_3_] _1563_ d_lut_NAND2X1
AINVX1_33 [_1563_] _1574_ d_lut_INVX1
ANOR2X1_28 [_1552_ _1574_] _1585_ d_lut_NOR2X1
AXNOR2X1_7 [_1585_ _1542_] _1596_ d_lut_XNOR2X1
AXNOR2X1_8 [_1596_ _1531_] _1607_ d_lut_XNOR2X1
AOR2X2_5 [_1530_ _1607_] _1618_ d_lut_OR2X2
ANAND2X1_28 [_1607_ _1530_] _1629_ d_lut_NAND2X1
ANAND2X1_29 [_1629_ _1618_] _1640_ d_lut_NAND2X1
AOR2X2_6 [_1640_ _1234_] _1651_ d_lut_OR2X2
ANAND2X1_30 [_1234_ _1640_] _1662_ d_lut_NAND2X1
AAND2X2_11 [_1651_ _1662_] _1673_ d_lut_AND2X2
AXOR2X1_4 [_1673_ _1202_] _1684_ d_lut_XOR2X1
AXNOR2X1_9 [_1684_ _1114_] _1695_ d_lut_XNOR2X1
AXNOR2X1_10 [_1695_ _1060_] _0__3_ d_lut_XNOR2X1
ANOR2X1_29 [_1059_ _1695_] _1716_ d_lut_NOR2X1
ANAND2X1_31 [_1114_ _1684_] _1727_ d_lut_NAND2X1
AINVX1_34 [_1651_] _1738_ d_lut_INVX1
AAOI21X1_1 [_1202_ _1662_ _1738_] _1749_ d_lut_AOI21X1
AINVX1_35 [_1749_] _1770_ d_lut_INVX1
AINVX1_36 [cos_gamma_4_] _1781_ d_lut_INVX1
ANOR2X1_30 [_1781_ _392_] _1792_ d_lut_NOR2X1
AINVX1_37 [_1792_] _1793_ d_lut_INVX1
ANAND2X1_32 [cos_gamma_3_ _1245_] _1814_ d_lut_NAND2X1
AOAI21X1_20 [_1781_ _337_ _1814_] _1815_ d_lut_OAI21X1
AOAI21X1_21 [_1169_ _1793_ _1815_] _1826_ d_lut_OAI21X1
ANOR2X1_31 [_1267_ _1498_] _1837_ d_lut_NOR2X1
ANOR2X1_32 [_1256_ _1509_] _1848_ d_lut_NOR2X1
ANOR2X1_33 [_1837_ _1848_] _1859_ d_lut_NOR2X1
ANAND2X1_33 [_1826_ _1859_] _1869_ d_lut_NAND2X1
ANOR2X1_34 [_1826_ _1859_] _1890_ d_lut_NOR2X1
AINVX1_38 [_1890_] _1891_ d_lut_INVX1
ANAND2X1_34 [_1869_ _1891_] _1902_ d_lut_NAND2X1
AINVX1_39 [_1902_] _1913_ d_lut_INVX1
ANAND2X1_35 [_1531_ _1596_] _1924_ d_lut_NAND2X1
AOAI21X1_22 [_1607_ _1530_ _1924_] _1935_ d_lut_OAI21X1
AINVX1_40 [_1935_] _1946_ d_lut_INVX1
AINVX1_41 [cos_gamma_2_] _1957_ d_lut_INVX1
ANOR2X1_35 [_1957_ _852_] _1968_ d_lut_NOR2X1
AINVX1_42 [_1968_] _1979_ d_lut_INVX1
AINVX1_43 [_1487_] _1990_ d_lut_INVX1
ANAND2X1_36 [_1289_ _1355_] _2001_ d_lut_NAND2X1
AAOI21X1_2 [_1410_ _2001_ _1366_] _2012_ d_lut_AOI21X1
AINVX1_44 [_2012_] _2023_ d_lut_INVX1
AINVX1_45 [vertices_1_] _2034_ d_lut_INVX1
AINVX1_46 [cos_alpha_4_] _2045_ d_lut_INVX1
AOAI22X1_2 [_141_ _2045_ _2034_ _1278_] _2056_ d_lut_OAI22X1
ANAND2X1_37 [vertices_1_ cos_alpha_4_] _2067_ d_lut_NAND2X1
AOAI21X1_23 [_2067_ _1443_ _2056_] _2078_ d_lut_OAI21X1
AINVX1_47 [_2078_] _2089_ d_lut_INVX1
AINVX1_48 [_1300_] _2100_ d_lut_INVX1
ANAND2X1_38 [cos_alpha_0_bF$buf0_ vertices_3_] _2121_ d_lut_NAND2X1
ANOR2X1_36 [_764_ _2121_] _2122_ d_lut_NOR2X1
AAOI21X1_3 [_1333_ _2100_ _2122_] _2133_ d_lut_AOI21X1
AINVX1_49 [_2133_] _2144_ d_lut_INVX1
ANAND2X1_39 [cos_alpha_1_bF$buf3_ vertices_4_] _2155_ d_lut_NAND2X1
AINVX1_50 [vertices_4_] _2166_ d_lut_INVX1
AOAI21X1_24 [_130_ _2166_ _1311_] _2177_ d_lut_OAI21X1
AOAI21X1_25 [_2121_ _2155_ _2177_] _2184_ d_lut_OAI21X1
AOAI21X1_26 [_741_ _687_ _2184_] _2185_ d_lut_OAI21X1
ANAND2X1_40 [vertices_2_ cos_alpha_2_bF$buf1_] _2186_ d_lut_NAND2X1
AINVX1_51 [_2186_] _2187_ d_lut_INVX1
AINVX1_52 [_2121_] _2188_ d_lut_INVX1
AAND2X2_12 [cos_alpha_1_bF$buf2_ vertices_4_] _2189_ d_lut_AND2X2
ANAND2X1_41 [_2189_ _2188_] _2190_ d_lut_NAND2X1
ANAND3X1_4 [_2187_ _2177_ _2190_] _2191_ d_lut_NAND3X1
ANAND3X1_5 [_2191_ _2185_ _2144_] _2192_ d_lut_NAND3X1
ANAND2X1_42 [_2191_ _2185_] _2193_ d_lut_NAND2X1
ANAND2X1_43 [_2133_ _2193_] _2194_ d_lut_NAND2X1
ANAND3X1_6 [_2089_ _2192_ _2194_] _2195_ d_lut_NAND3X1
AINVX1_53 [_2195_] _2196_ d_lut_INVX1
AAOI21X1_4 [_2194_ _2192_ _2089_] _2197_ d_lut_AOI21X1
AOAI21X1_27 [_2197_ _2196_ _2023_] _2198_ d_lut_OAI21X1
AINVX1_54 [_2197_] _2199_ d_lut_INVX1
ANAND3X1_7 [_2012_ _2195_ _2199_] _2200_ d_lut_NAND3X1
ANAND3X1_8 [_2198_ _2200_ _1476_] _2201_ d_lut_NAND3X1
AAOI21X1_5 [_1399_ _1421_ _819_] _2202_ d_lut_AOI21X1
ANAND2X1_44 [_2200_ _2198_] _2203_ d_lut_NAND2X1
ANAND2X1_45 [_2202_ _2203_] _2204_ d_lut_NAND2X1
ANAND2X1_46 [_2204_ _2201_] _2205_ d_lut_NAND2X1
AOAI22X1_3 [_326_ _1990_ _315_ _2205_] _2206_ d_lut_OAI22X1
AAND2X2_13 [_2201_ _2204_] _2207_ d_lut_AND2X2
ANAND2X1_47 [cos_gamma_1_ _2207_] _2208_ d_lut_NAND2X1
AOAI21X1_28 [_1498_ _2208_ _2206_] _2209_ d_lut_OAI21X1
AXNOR2X1_11 [_2209_ _1979_] _2210_ d_lut_XNOR2X1
AOAI21X1_29 [_1542_ _1552_ _1563_] _2211_ d_lut_OAI21X1
AINVX1_55 [dz_4_] _2212_ d_lut_INVX1
ANOR2X1_37 [dy_4_ dx_4_] _2213_ d_lut_NOR2X1
ANAND2X1_48 [dy_4_ dx_4_] _2214_ d_lut_NAND2X1
AINVX1_56 [_2214_] _2215_ d_lut_INVX1
ANOR2X1_38 [_2213_ _2215_] _2216_ d_lut_NOR2X1
AXNOR2X1_12 [_2216_ _2212_] _2217_ d_lut_XNOR2X1
AXOR2X1_5 [_2217_ _2211_] _2218_ d_lut_XOR2X1
AINVX1_57 [_2218_] _2219_ d_lut_INVX1
AOR2X2_7 [_2210_ _2219_] _2220_ d_lut_OR2X2
ANAND2X1_49 [_2219_ _2210_] _2221_ d_lut_NAND2X1
ANAND2X1_50 [_2221_ _2220_] _2222_ d_lut_NAND2X1
ANOR2X1_39 [_1946_ _2222_] _2223_ d_lut_NOR2X1
ANAND2X1_51 [_1946_ _2222_] _2224_ d_lut_NAND2X1
AINVX1_58 [_2224_] _2225_ d_lut_INVX1
ANOR2X1_40 [_2223_ _2225_] _2226_ d_lut_NOR2X1
ANAND2X1_52 [_1913_ _2226_] _2227_ d_lut_NAND2X1
AOAI21X1_30 [_2223_ _2225_ _1902_] _2228_ d_lut_OAI21X1
ANAND3X1_9 [_2228_ _2227_ _1770_] _2229_ d_lut_NAND3X1
AAND2X2_14 [_2226_ _1913_] _2230_ d_lut_AND2X2
AINVX1_59 [_2228_] _2231_ d_lut_INVX1
AOAI21X1_31 [_2231_ _2230_ _1749_] _2232_ d_lut_OAI21X1
AAOI21X1_6 [_2232_ _2229_ _1190_] _2233_ d_lut_AOI21X1
ANAND3X1_10 [_1190_ _2229_ _2232_] _2234_ d_lut_NAND3X1
AINVX1_60 [_2234_] _2235_ d_lut_INVX1
AOAI21X1_32 [_2233_ _2235_ _1727_] _2236_ d_lut_OAI21X1
AINVX1_61 [_1727_] _2237_ d_lut_INVX1
AINVX1_62 [_2229_] _2238_ d_lut_INVX1
AAOI21X1_7 [_2227_ _2228_ _1770_] _2239_ d_lut_AOI21X1
AOAI21X1_33 [_2239_ _2238_ _1191_] _2240_ d_lut_OAI21X1
ANAND3X1_11 [_2237_ _2234_ _2240_] _2241_ d_lut_NAND3X1
ANAND3X1_12 [_1716_ _2241_ _2236_] _2242_ d_lut_NAND3X1
AINVX1_63 [_2242_] _2243_ d_lut_INVX1
AAOI21X1_8 [_2236_ _2241_ _1716_] _2244_ d_lut_AOI21X1
ANOR2X1_41 [_2244_ _2243_] _0__4_ d_lut_NOR2X1
ANOR2X1_42 [_2233_ _2235_] _2245_ d_lut_NOR2X1
AOAI21X1_34 [_1191_ _2239_ _2229_] _2246_ d_lut_OAI21X1
AAOI21X1_9 [_1913_ _2224_ _2223_] _2247_ d_lut_AOI21X1
AINVX1_64 [_2247_] _2248_ d_lut_INVX1
AINVX1_65 [cos_gamma_5_] _2249_ d_lut_INVX1
ANAND2X1_53 [cos_gamma_3_ _841_] _2250_ d_lut_NAND2X1
AOAI21X1_35 [_1781_ _392_ _2250_] _2251_ d_lut_OAI21X1
ANAND2X1_54 [cos_gamma_4_ _841_] _2252_ d_lut_NAND2X1
AOAI21X1_36 [_1814_ _2252_ _2251_] _2253_ d_lut_OAI21X1
AOAI21X1_37 [_2249_ _337_ _2253_] _2254_ d_lut_OAI21X1
AINVX1_66 [_2253_] _2255_ d_lut_INVX1
ANAND3X1_13 [cos_gamma_5_ _152_ _2255_] _2256_ d_lut_NAND3X1
ANAND2X1_55 [_2254_ _2256_] _2257_ d_lut_NAND2X1
AINVX1_67 [_1498_] _2258_ d_lut_INVX1
AINVX1_68 [_2208_] _2259_ d_lut_INVX1
AAOI22X1_1 [_1968_ _2206_ _2258_ _2259_] _2260_ d_lut_AOI22X1
AOR2X2_8 [_2260_ _2257_] _2261_ d_lut_OR2X2
ANAND2X1_56 [_2257_ _2260_] _2262_ d_lut_NAND2X1
ANAND2X1_57 [_2262_ _2261_] _2263_ d_lut_NAND2X1
AOAI21X1_38 [_1169_ _1793_ _2263_] _2264_ d_lut_OAI21X1
ANOR2X1_43 [_1169_ _1793_] _2265_ d_lut_NOR2X1
ANAND3X1_14 [_2265_ _2262_ _2261_] _2266_ d_lut_NAND3X1
ANAND2X1_58 [_2266_ _2264_] _2267_ d_lut_NAND2X1
AINVX1_69 [_2267_] _2268_ d_lut_INVX1
ANAND2X1_59 [_2211_ _2217_] _2269_ d_lut_NAND2X1
AOAI21X1_39 [_2219_ _2210_ _2269_] _2270_ d_lut_OAI21X1
ANOR2X1_44 [_1957_ _1990_] _2271_ d_lut_NOR2X1
AINVX1_70 [_2271_] _2272_ d_lut_INVX1
AAND2X2_15 [vertices_1_ cos_alpha_4_] _2273_ d_lut_AND2X2
ANAND2X1_60 [_2273_ _1410_] _2274_ d_lut_NAND2X1
AAOI21X1_10 [_2185_ _2191_ _2144_] _2275_ d_lut_AOI21X1
AOAI21X1_40 [_2078_ _2275_ _2192_] _2276_ d_lut_OAI21X1
AINVX1_71 [cos_alpha_5_] _2277_ d_lut_INVX1
ANOR2X1_45 [_141_ _2277_] _2278_ d_lut_NOR2X1
AAND2X2_16 [vertices_2_ cos_alpha_3_] _2279_ d_lut_AND2X2
ANAND2X1_61 [_2273_ _2279_] _2280_ d_lut_NAND2X1
AOAI21X1_41 [_741_ _1278_ _2067_] _2281_ d_lut_OAI21X1
ANAND3X1_15 [_2278_ _2281_ _2280_] _2282_ d_lut_NAND3X1
AINVX1_72 [_2278_] _2283_ d_lut_INVX1
ANAND2X1_62 [vertices_2_ cos_alpha_3_] _2284_ d_lut_NAND2X1
ANOR2X1_46 [_2067_ _2284_] _2285_ d_lut_NOR2X1
ANOR2X1_47 [_2273_ _2279_] _2286_ d_lut_NOR2X1
AOAI21X1_42 [_2285_ _2286_ _2283_] _2287_ d_lut_OAI21X1
ANAND2X1_63 [_2282_ _2287_] _2288_ d_lut_NAND2X1
AAOI22X1_2 [_2188_ _2189_ _2187_ _2177_] _2289_ d_lut_AOI22X1
AAND2X2_17 [cos_alpha_0_bF$buf3_ vertices_5_] _2290_ d_lut_AND2X2
ANAND2X1_64 [_2189_ _2290_] _2291_ d_lut_NAND2X1
AINVX1_73 [vertices_5_] _2292_ d_lut_INVX1
AOAI21X1_43 [_130_ _2292_ _2155_] _2293_ d_lut_OAI21X1
AAOI22X1_3 [cos_alpha_2_bF$buf0_ vertices_3_ _2293_ _2291_] _2294_ d_lut_AOI22X1
ANAND2X1_65 [cos_alpha_2_bF$buf3_ vertices_3_] _2295_ d_lut_NAND2X1
AOAI21X1_44 [_358_ _2166_ _2290_] _2296_ d_lut_OAI21X1
AOAI21X1_45 [_130_ _2292_ _2189_] _2297_ d_lut_OAI21X1
AAOI21X1_11 [_2296_ _2297_ _2295_] _2298_ d_lut_AOI21X1
ANOR3X1_1 [_2289_ _2294_ _2298_] _2299_ d_lut_NOR3X1
ANAND2X1_66 [cos_alpha_0_bF$buf2_ vertices_4_] _2300_ d_lut_NAND2X1
AAND2X2_18 [_1311_ _2300_] _2301_ d_lut_AND2X2
AOAI21X1_46 [_2186_ _2301_ _2190_] _2302_ d_lut_OAI21X1
ANAND3X1_16 [_2295_ _2296_ _2297_] _2303_ d_lut_NAND3X1
AINVX1_74 [_2295_] _2304_ d_lut_INVX1
ANAND3X1_17 [_2304_ _2293_ _2291_] _2305_ d_lut_NAND3X1
AAOI21X1_12 [_2303_ _2305_ _2302_] _2306_ d_lut_AOI21X1
AOAI21X1_47 [_2306_ _2299_ _2288_] _2307_ d_lut_OAI21X1
ANAND3X1_18 [_2280_ _2281_ _2283_] _2308_ d_lut_NAND3X1
AOAI21X1_48 [_2285_ _2286_ _2278_] _2309_ d_lut_OAI21X1
ANAND2X1_67 [_2309_ _2308_] _2310_ d_lut_NAND2X1
ANAND3X1_19 [_2305_ _2303_ _2302_] _2311_ d_lut_NAND3X1
AOAI21X1_49 [_2294_ _2298_ _2289_] _2312_ d_lut_OAI21X1
ANAND3X1_20 [_2311_ _2310_ _2312_] _2313_ d_lut_NAND3X1
ANAND3X1_21 [_2313_ _2307_ _2276_] _2314_ d_lut_NAND3X1
AINVX1_75 [_2192_] _2315_ d_lut_INVX1
AAOI21X1_13 [_2194_ _2089_ _2315_] _2316_ d_lut_AOI21X1
AAOI21X1_14 [_2312_ _2311_ _2310_] _2317_ d_lut_AOI21X1
AINVX1_76 [_2313_] _2318_ d_lut_INVX1
AOAI21X1_50 [_2317_ _2318_ _2316_] _2319_ d_lut_OAI21X1
ANAND3X1_22 [_2274_ _2314_ _2319_] _2320_ d_lut_NAND3X1
AINVX1_77 [_2274_] _2321_ d_lut_INVX1
AOAI21X1_51 [_2317_ _2318_ _2276_] _2322_ d_lut_OAI21X1
ANAND3X1_23 [_2307_ _2313_ _2316_] _2323_ d_lut_NAND3X1
ANAND3X1_24 [_2321_ _2322_ _2323_] _2324_ d_lut_NAND3X1
ANAND2X1_68 [_2320_ _2324_] _2325_ d_lut_NAND2X1
ANOR3X1_2 [_2197_ _2012_ _2196_] _2326_ d_lut_NOR3X1
AAOI21X1_15 [_2198_ _2200_ _1476_] _2327_ d_lut_AOI21X1
ANOR2X1_48 [_2326_ _2327_] _2328_ d_lut_NOR2X1
ANAND2X1_69 [_2325_ _2328_] _2329_ d_lut_NAND2X1
AINVX1_78 [_2325_] _2330_ d_lut_INVX1
AOAI21X1_52 [_2326_ _2327_ _2330_] _2331_ d_lut_OAI21X1
ANAND2X1_70 [_2331_ _2329_] _2332_ d_lut_NAND2X1
AAOI21X1_16 [_2332_ cos_gamma_0_bF$buf0_ _2259_] _2333_ d_lut_AOI21X1
AOAI21X1_53 [_2326_ _2327_ _2325_] _2334_ d_lut_OAI21X1
ANAND2X1_71 [_2330_ _2328_] _2335_ d_lut_NAND2X1
ANAND3X1_25 [cos_gamma_0_bF$buf4_ _2334_ _2335_] _2336_ d_lut_NAND3X1
ANOR2X1_49 [_2208_ _2336_] _2337_ d_lut_NOR2X1
AOAI21X1_54 [_2337_ _2333_ _2272_] _2338_ d_lut_OAI21X1
AOAI21X1_55 [_326_ _2205_ _2336_] _2339_ d_lut_OAI21X1
AINVX1_79 [_2337_] _2340_ d_lut_INVX1
ANAND3X1_26 [_2271_ _2339_ _2340_] _2341_ d_lut_NAND3X1
AOAI21X1_56 [_2212_ _2213_ _2214_] _2342_ d_lut_OAI21X1
AINVX1_80 [dz_5_] _2343_ d_lut_INVX1
ANOR2X1_50 [dy_5_ dx_5_] _2344_ d_lut_NOR2X1
ANAND2X1_72 [dy_5_ dx_5_] _2345_ d_lut_NAND2X1
AINVX1_81 [_2345_] _2346_ d_lut_INVX1
ANOR2X1_51 [_2344_ _2346_] _2347_ d_lut_NOR2X1
AXNOR2X1_13 [_2347_ _2343_] _2348_ d_lut_XNOR2X1
AXOR2X1_6 [_2348_ _2342_] _2349_ d_lut_XOR2X1
ANAND3X1_27 [_2338_ _2349_ _2341_] _2350_ d_lut_NAND3X1
ANAND2X1_73 [_2338_ _2341_] _2351_ d_lut_NAND2X1
AINVX1_82 [_2349_] _2352_ d_lut_INVX1
ANAND2X1_74 [_2352_ _2351_] _2353_ d_lut_NAND2X1
ANAND3X1_28 [_2270_ _2350_ _2353_] _2354_ d_lut_NAND3X1
AAOI21X1_17 [_2353_ _2350_ _2270_] _2355_ d_lut_AOI21X1
AINVX1_83 [_2355_] _2356_ d_lut_INVX1
ANAND3X1_29 [_2268_ _2354_ _2356_] _2357_ d_lut_NAND3X1
AINVX1_84 [_2354_] _2358_ d_lut_INVX1
AOAI21X1_57 [_2355_ _2358_ _2267_] _2359_ d_lut_OAI21X1
ANAND3X1_30 [_2359_ _2248_ _2357_] _2360_ d_lut_NAND3X1
AINVX1_85 [_2360_] _2361_ d_lut_INVX1
AAOI21X1_18 [_2357_ _2359_ _2248_] _2362_ d_lut_AOI21X1
AOAI21X1_58 [_2362_ _2361_ _1891_] _2363_ d_lut_OAI21X1
AINVX1_86 [_2362_] _2364_ d_lut_INVX1
ANAND3X1_31 [_1890_ _2360_ _2364_] _2365_ d_lut_NAND3X1
ANAND3X1_32 [_2246_ _2365_ _2363_] _2366_ d_lut_NAND3X1
AINVX1_87 [_2246_] _2367_ d_lut_INVX1
ANAND2X1_75 [_2365_ _2363_] _2368_ d_lut_NAND2X1
ANAND2X1_76 [_2367_ _2368_] _2369_ d_lut_NAND2X1
AAOI22X1_4 [_2369_ _2366_ _2237_ _2245_] _2370_ d_lut_AOI22X1
AINVX1_88 [_2241_] _2371_ d_lut_INVX1
ANAND3X1_33 [_2366_ _2369_ _2371_] _2372_ d_lut_NAND3X1
AINVX1_89 [_2372_] _2373_ d_lut_INVX1
ANOR2X1_52 [_2370_ _2373_] _2374_ d_lut_NOR2X1
AXNOR2X1_14 [_2374_ _2242_] _0__5_ d_lut_XNOR2X1
AOAI21X1_59 [_1891_ _2362_ _2360_] _2375_ d_lut_OAI21X1
AINVX1_90 [_2375_] _2376_ d_lut_INVX1
AINVX1_91 [cos_gamma_6_] _2377_ d_lut_INVX1
AAND2X2_19 [_2266_ _2261_] _2378_ d_lut_AND2X2
AOAI21X1_60 [_2377_ _337_ _2378_] _2379_ d_lut_OAI21X1
ANAND2X1_77 [cos_gamma_6_ _152_] _2380_ d_lut_NAND2X1
ANOR2X1_53 [_2380_ _2378_] _2381_ d_lut_NOR2X1
AINVX1_92 [_2381_] _2382_ d_lut_INVX1
ANAND2X1_78 [_2379_ _2382_] _2383_ d_lut_NAND2X1
AINVX1_93 [_2383_] _2384_ d_lut_INVX1
AOAI21X1_61 [_2267_ _2355_ _2354_] _2385_ d_lut_OAI21X1
AOAI21X1_62 [_1793_ _2250_ _2256_] _2386_ d_lut_OAI21X1
AINVX1_94 [_2386_] _2387_ d_lut_INVX1
ANOR2X1_54 [_2249_ _392_] _2388_ d_lut_NOR2X1
AINVX1_95 [_2388_] _2389_ d_lut_INVX1
ANAND2X1_79 [cos_gamma_3_ _1487_] _2390_ d_lut_NAND2X1
AOAI21X1_63 [_1781_ _852_ _2390_] _2391_ d_lut_OAI21X1
ANAND2X1_80 [cos_gamma_4_ _1487_] _2392_ d_lut_NAND2X1
AOAI21X1_64 [_2250_ _2392_ _2391_] _2393_ d_lut_OAI21X1
AXNOR2X1_15 [_2393_ _2389_] _2394_ d_lut_XNOR2X1
AAOI21X1_19 [_2339_ _2271_ _2337_] _2395_ d_lut_AOI21X1
ANOR2X1_55 [_2394_ _2395_] _2396_ d_lut_NOR2X1
AAND2X2_20 [_2395_ _2394_] _2397_ d_lut_AND2X2
AOAI21X1_65 [_2396_ _2397_ _2387_] _2398_ d_lut_OAI21X1
AOR2X2_9 [_2395_ _2394_] _2399_ d_lut_OR2X2
ANAND2X1_81 [_2394_ _2395_] _2400_ d_lut_NAND2X1
ANAND3X1_34 [_2386_ _2400_ _2399_] _2401_ d_lut_NAND3X1
AAND2X2_21 [_2398_ _2401_] _2402_ d_lut_AND2X2
ANAND2X1_82 [_2342_ _2348_] _2403_ d_lut_NAND2X1
AOAI21X1_66 [_2352_ _2351_ _2403_] _2404_ d_lut_OAI21X1
ANOR2X1_56 [_1957_ _2205_] _2405_ d_lut_NOR2X1
AINVX1_96 [_2405_] _2406_ d_lut_INVX1
ANAND3X1_35 [cos_gamma_1_ _2334_ _2335_] _2407_ d_lut_NAND3X1
ANAND2X1_83 [_2325_ _2327_] _2408_ d_lut_NAND2X1
ANAND3X1_36 [_2321_ _2314_ _2319_] _2409_ d_lut_NAND3X1
ANAND3X1_37 [_2274_ _2322_ _2323_] _2410_ d_lut_NAND3X1
ANAND3X1_38 [_2326_ _2409_ _2410_] _2411_ d_lut_NAND3X1
AAOI21X1_20 [_2307_ _2313_ _2276_] _2412_ d_lut_AOI21X1
AOAI21X1_67 [_2274_ _2412_ _2314_] _2413_ d_lut_OAI21X1
ANAND2X1_84 [vertices_0_ cos_alpha_6_] _2414_ d_lut_NAND2X1
AINVX1_97 [_2414_] _2415_ d_lut_INVX1
AOAI21X1_68 [_2286_ _2283_ _2280_] _2416_ d_lut_OAI21X1
ANAND2X1_85 [_2415_ _2416_] _2417_ d_lut_NAND2X1
AINVX1_98 [_2417_] _2418_ d_lut_INVX1
ANOR2X1_57 [_2415_ _2416_] _2419_ d_lut_NOR2X1
AOR2X2_10 [_2418_ _2419_] _2420_ d_lut_OR2X2
AAOI21X1_21 [_2310_ _2312_ _2299_] _2421_ d_lut_AOI21X1
ANAND2X1_86 [vertices_1_ cos_alpha_5_] _2422_ d_lut_NAND2X1
AINVX1_99 [_2422_] _2423_ d_lut_INVX1
AAND2X2_22 [vertices_2_ cos_alpha_4_] _2424_ d_lut_AND2X2
AAND2X2_23 [vertices_3_ cos_alpha_3_] _2425_ d_lut_AND2X2
ANAND2X1_87 [_2424_ _2425_] _2426_ d_lut_NAND2X1
AOAI22X1_4 [_741_ _2045_ _1322_ _1278_] _2427_ d_lut_OAI22X1
ANAND3X1_39 [_2423_ _2427_ _2426_] _2428_ d_lut_NAND3X1
AOAI21X1_69 [_741_ _2045_ _2425_] _2429_ d_lut_OAI21X1
AOAI21X1_70 [_1322_ _1278_ _2424_] _2430_ d_lut_OAI21X1
ANAND3X1_40 [_2422_ _2429_ _2430_] _2431_ d_lut_NAND3X1
AAOI22X1_5 [cos_alpha_0_bF$buf1_ vertices_5_ cos_alpha_1_bF$buf1_ vertices_4_] _2432_ d_lut_AOI22X1
AOAI21X1_71 [_2295_ _2432_ _2291_] _2433_ d_lut_OAI21X1
ANAND2X1_88 [cos_alpha_2_bF$buf2_ vertices_4_] _2434_ d_lut_NAND2X1
ANAND2X1_89 [cos_alpha_1_bF$buf0_ vertices_5_] _2435_ d_lut_NAND2X1
ANAND2X1_90 [cos_alpha_0_bF$buf0_ vertices_6_] _2436_ d_lut_NAND2X1
ANOR2X1_58 [_2435_ _2436_] _2437_ d_lut_NOR2X1
AAOI22X1_6 [cos_alpha_0_bF$buf3_ vertices_6_ cos_alpha_1_bF$buf3_ vertices_5_] _2438_ d_lut_AOI22X1
AOAI21X1_72 [_2438_ _2437_ _2434_] _2439_ d_lut_OAI21X1
AINVX1_100 [_2434_] _2440_ d_lut_INVX1
AAND2X2_24 [cos_alpha_1_bF$buf2_ vertices_6_] _2441_ d_lut_AND2X2
ANAND2X1_91 [_2290_ _2441_] _2442_ d_lut_NAND2X1
AINVX1_101 [_2438_] _2443_ d_lut_INVX1
ANAND3X1_41 [_2440_ _2443_ _2442_] _2444_ d_lut_NAND3X1
ANAND3X1_42 [_2433_ _2444_ _2439_] _2445_ d_lut_NAND3X1
AINVX1_102 [_2300_] _2446_ d_lut_INVX1
AINVX1_103 [_2435_] _2447_ d_lut_INVX1
AAOI22X1_7 [_2446_ _2447_ _2304_ _2293_] _2448_ d_lut_AOI22X1
AAOI22X1_8 [cos_alpha_2_bF$buf1_ vertices_4_ _2443_ _2442_] _2449_ d_lut_AOI22X1
ANAND3X1_43 [cos_alpha_0_bF$buf2_ vertices_6_ _2435_] _2450_ d_lut_NAND3X1
ANAND3X1_44 [cos_alpha_1_bF$buf1_ vertices_5_ _2436_] _2451_ d_lut_NAND3X1
AAOI21X1_22 [_2450_ _2451_ _2434_] _2452_ d_lut_AOI21X1
AOAI21X1_73 [_2452_ _2449_ _2448_] _2453_ d_lut_OAI21X1
AAOI22X1_9 [_2428_ _2431_ _2445_ _2453_] _2454_ d_lut_AOI22X1
ANAND2X1_92 [_2428_ _2431_] _2455_ d_lut_NAND2X1
AOAI21X1_74 [_2452_ _2449_ _2433_] _2456_ d_lut_OAI21X1
ANAND3X1_45 [_2448_ _2444_ _2439_] _2457_ d_lut_NAND3X1
AAOI21X1_23 [_2456_ _2457_ _2455_] _2458_ d_lut_AOI21X1
ANOR3X1_3 [_2454_ _2458_ _2421_] _2459_ d_lut_NOR3X1
AOAI21X1_75 [_2288_ _2306_ _2311_] _2460_ d_lut_OAI21X1
ANAND3X1_46 [_2455_ _2457_ _2456_] _2461_ d_lut_NAND3X1
ANAND3X1_47 [_2422_ _2427_ _2426_] _2462_ d_lut_NAND3X1
ANAND3X1_48 [_2423_ _2429_ _2430_] _2463_ d_lut_NAND3X1
ANAND2X1_93 [_2462_ _2463_] _2464_ d_lut_NAND2X1
ANAND3X1_49 [_2464_ _2445_ _2453_] _2465_ d_lut_NAND3X1
AAOI21X1_24 [_2461_ _2465_ _2460_] _2466_ d_lut_AOI21X1
AOAI21X1_76 [_2466_ _2459_ _2420_] _2467_ d_lut_OAI21X1
ANOR2X1_59 [_2419_ _2418_] _2468_ d_lut_NOR2X1
ANAND3X1_50 [_2461_ _2465_ _2460_] _2469_ d_lut_NAND3X1
AOAI21X1_77 [_2454_ _2458_ _2421_] _2470_ d_lut_OAI21X1
ANAND3X1_51 [_2468_ _2469_ _2470_] _2471_ d_lut_NAND3X1
ANAND3X1_52 [_2471_ _2413_ _2467_] _2472_ d_lut_NAND3X1
AINVX1_104 [_2314_] _2473_ d_lut_INVX1
AAOI21X1_25 [_2321_ _2319_ _2473_] _2474_ d_lut_AOI21X1
AAOI21X1_26 [_2470_ _2469_ _2468_] _2475_ d_lut_AOI21X1
AINVX1_105 [_2471_] _2476_ d_lut_INVX1
AOAI21X1_78 [_2475_ _2476_ _2474_] _2477_ d_lut_OAI21X1
ANAND3X1_53 [_2472_ _2411_ _2477_] _2478_ d_lut_NAND3X1
ANAND3X1_54 [_2195_ _2199_ _2023_] _2479_ d_lut_NAND3X1
AAOI21X1_27 [_2324_ _2320_ _2479_] _2480_ d_lut_AOI21X1
AOAI21X1_79 [_2475_ _2476_ _2413_] _2481_ d_lut_OAI21X1
ANAND3X1_55 [_2467_ _2471_ _2474_] _2482_ d_lut_NAND3X1
ANAND3X1_56 [_2481_ _2480_ _2482_] _2483_ d_lut_NAND3X1
ANAND3X1_57 [_2478_ _2483_ _2408_] _2484_ d_lut_NAND3X1
ANOR2X1_60 [_2204_ _2330_] _2485_ d_lut_NOR2X1
ANAND3X1_58 [_2472_ _2477_ _2480_] _2486_ d_lut_NAND3X1
ANAND3X1_59 [_2411_ _2481_ _2482_] _2487_ d_lut_NAND3X1
ANAND3X1_60 [_2486_ _2487_ _2485_] _2488_ d_lut_NAND3X1
ANAND3X1_61 [cos_gamma_0_bF$buf3_ _2484_ _2488_] _2489_ d_lut_NAND3X1
AAND2X2_25 [_2489_ _2407_] _2490_ d_lut_AND2X2
ANOR2X1_61 [_2407_ _2489_] _2491_ d_lut_NOR2X1
AOAI21X1_80 [_2491_ _2490_ _2406_] _2492_ d_lut_OAI21X1
ANAND2X1_94 [_2334_ _2335_] _2493_ d_lut_NAND2X1
AOAI21X1_81 [_326_ _2493_ _2489_] _2494_ d_lut_OAI21X1
AOR2X2_11 [_2489_ _2407_] _2495_ d_lut_OR2X2
ANAND3X1_62 [_2405_ _2494_ _2495_] _2496_ d_lut_NAND3X1
AOAI21X1_82 [_2343_ _2344_ _2345_] _2497_ d_lut_OAI21X1
AINVX1_106 [dz_6_] _2498_ d_lut_INVX1
ANOR2X1_62 [dy_6_ dx_6_] _2499_ d_lut_NOR2X1
ANAND2X1_95 [dy_6_ dx_6_] _2500_ d_lut_NAND2X1
AINVX1_107 [_2500_] _2501_ d_lut_INVX1
ANOR2X1_63 [_2499_ _2501_] _2502_ d_lut_NOR2X1
AXNOR2X1_16 [_2502_ _2498_] _2503_ d_lut_XNOR2X1
AXOR2X1_7 [_2503_ _2497_] _2504_ d_lut_XOR2X1
ANAND3X1_63 [_2504_ _2492_ _2496_] _2505_ d_lut_NAND3X1
AAOI21X1_28 [_2496_ _2492_ _2504_] _2506_ d_lut_AOI21X1
AINVX1_108 [_2506_] _2507_ d_lut_INVX1
ANAND3X1_64 [_2505_ _2507_ _2404_] _2508_ d_lut_NAND3X1
AAND2X2_26 [_2350_ _2403_] _2509_ d_lut_AND2X2
AINVX1_109 [_2505_] _2510_ d_lut_INVX1
AOAI21X1_83 [_2510_ _2506_ _2509_] _2511_ d_lut_OAI21X1
ANAND3X1_65 [_2402_ _2508_ _2511_] _2512_ d_lut_NAND3X1
AINVX1_110 [_2402_] _2513_ d_lut_INVX1
ANAND2X1_96 [_2508_ _2511_] _2514_ d_lut_NAND2X1
ANAND2X1_97 [_2513_ _2514_] _2515_ d_lut_NAND2X1
ANAND3X1_66 [_2385_ _2512_ _2515_] _2516_ d_lut_NAND3X1
AINVX1_111 [_2516_] _2517_ d_lut_INVX1
AAOI21X1_29 [_2515_ _2512_ _2385_] _2518_ d_lut_AOI21X1
ANOR2X1_64 [_2518_ _2517_] _2519_ d_lut_NOR2X1
ANAND2X1_98 [_2384_ _2519_] _2520_ d_lut_NAND2X1
AOAI21X1_84 [_2518_ _2517_ _2383_] _2521_ d_lut_OAI21X1
ANAND2X1_99 [_2521_ _2520_] _2522_ d_lut_NAND2X1
ANOR2X1_65 [_2376_ _2522_] _2523_ d_lut_NOR2X1