*SPICE netlist created from BLIF module CompBlock by blif2BSpice
.include /usr/local/share/qflow/tech/osu035/osu035_stdcells.sp
.subckt CompBlock vdd gnd clk vertices[0] vertices[1] vertices[2] vertices[3] vertices[4] vertices[5] vertices[6] vertices[7] vertices[8] vertices[9] vertices[10] vertices[11] vertices[12] vertices[13] vertices[14] vertices[15] cos_alpha[0] cos_alpha[1] cos_alpha[2] cos_alpha[3] cos_alpha[4] cos_alpha[5] cos_alpha[6] cos_alpha[7] cos_alpha[8] cos_alpha[9] cos_alpha[10] cos_alpha[11] cos_alpha[12] cos_alpha[13] cos_alpha[14] cos_alpha[15] sin_alpha[0] sin_alpha[1] sin_alpha[2] sin_alpha[3] sin_alpha[4] sin_alpha[5] sin_alpha[6] sin_alpha[7] sin_alpha[8] sin_alpha[9] sin_alpha[10] sin_alpha[11] sin_alpha[12] sin_alpha[13] sin_alpha[14] sin_alpha[15] cos_beta[0] cos_beta[1] cos_beta[2] cos_beta[3] cos_beta[4] cos_beta[5] cos_beta[6] cos_beta[7] cos_beta[8] cos_beta[9] cos_beta[10] cos_beta[11] cos_beta[12] cos_beta[13] cos_beta[14] cos_beta[15] sin_beta[0] sin_beta[1] sin_beta[2] sin_beta[3] sin_beta[4] sin_beta[5] sin_beta[6] sin_beta[7] sin_beta[8] sin_beta[9] sin_beta[10] sin_beta[11] sin_beta[12] sin_beta[13] sin_beta[14] sin_beta[15] cos_gamma[0] cos_gamma[1] cos_gamma[2] cos_gamma[3] cos_gamma[4] cos_gamma[5] cos_gamma[6] cos_gamma[7] cos_gamma[8] cos_gamma[9] cos_gamma[10] cos_gamma[11] cos_gamma[12] cos_gamma[13] cos_gamma[14] cos_gamma[15] sin_gamma[0] sin_gamma[1] sin_gamma[2] sin_gamma[3] sin_gamma[4] sin_gamma[5] sin_gamma[6] sin_gamma[7] sin_gamma[8] sin_gamma[9] sin_gamma[10] sin_gamma[11] sin_gamma[12] sin_gamma[13] sin_gamma[14] sin_gamma[15] dx[0] dx[1] dx[2] dx[3] dx[4] dx[5] dx[6] dx[7] dx[8] dx[9] dx[10] dx[11] dx[12] dx[13] dx[14] dx[15] dy[0] dy[1] dy[2] dy[3] dy[4] dy[5] dy[6] dy[7] dy[8] dy[9] dy[10] dy[11] dy[12] dy[13] dy[14] dy[15] dz[0] dz[1] dz[2] dz[3] dz[4] dz[5] dz[6] dz[7] dz[8] dz[9] dz[10] dz[11] dz[12] dz[13] dz[14] dz[15] vertices_out[0] vertices_out[1] vertices_out[2] vertices_out[3] vertices_out[4] vertices_out[5] vertices_out[6] vertices_out[7] vertices_out[8] vertices_out[9] vertices_out[10] vertices_out[11] vertices_out[12] vertices_out[13] vertices_out[14] vertices_out[15] 
XBUFX2_1 vdd gnd cos_alpha[0] cos_alpha[0_bF$buf3] BUFX2
XBUFX2_2 vdd gnd cos_alpha[0] cos_alpha[0_bF$buf2] BUFX2
XBUFX2_3 vdd gnd cos_alpha[0] cos_alpha[0_bF$buf1] BUFX2
XBUFX2_4 vdd gnd cos_alpha[0] cos_alpha[0_bF$buf0] BUFX2
XBUFX2_5 vdd gnd cos_gamma[0] cos_gamma[0_bF$buf4] BUFX2
XBUFX2_6 vdd gnd cos_gamma[0] cos_gamma[0_bF$buf3] BUFX2
XBUFX2_7 vdd gnd cos_gamma[0] cos_gamma[0_bF$buf2] BUFX2
XBUFX2_8 vdd gnd cos_gamma[0] cos_gamma[0_bF$buf1] BUFX2
XBUFX2_9 vdd gnd cos_gamma[0] cos_gamma[0_bF$buf0] BUFX2
XBUFX2_10 vdd gnd cos_alpha[2] cos_alpha[2_bF$buf3] BUFX2
XBUFX2_11 vdd gnd cos_alpha[2] cos_alpha[2_bF$buf2] BUFX2
XBUFX2_12 vdd gnd cos_alpha[2] cos_alpha[2_bF$buf1] BUFX2
XBUFX2_13 vdd gnd cos_alpha[2] cos_alpha[2_bF$buf0] BUFX2
XBUFX2_14 vdd gnd cos_alpha[1] cos_alpha[1_bF$buf3] BUFX2
XBUFX2_15 vdd gnd cos_alpha[1] cos_alpha[1_bF$buf2] BUFX2
XBUFX2_16 vdd gnd cos_alpha[1] cos_alpha[1_bF$buf1] BUFX2
XBUFX2_17 vdd gnd cos_alpha[1] cos_alpha[1_bF$buf0] BUFX2
XINVX1_1 cos_alpha[0_bF$buf3] _130_ vdd gnd INVX1
XINVX1_2 vertices[0] _141_ vdd gnd INVX1
XNOR2X1_1 vdd _141_ gnd _152_ _130_ NOR2X1
XNAND2X1_1 vdd _163_ gnd cos_gamma[0_bF$buf4] _152_ NAND2X1
XINVX1_3 _163_ _174_ vdd gnd INVX1
XNOR2X1_2 vdd dx[0] gnd _185_ dy[0] NOR2X1
XINVX1_4 dy[0] _196_ vdd gnd INVX1
XINVX1_5 dx[0] _207_ vdd gnd INVX1
XNOR2X1_3 vdd _207_ gnd _218_ _196_ NOR2X1
XNOR2X1_4 vdd _218_ gnd _239_ _185_ NOR2X1
XNAND2X1_2 vdd _250_ gnd dz[0] _239_ NAND2X1
XOR2X2_1 _261_ dz[0] vdd gnd _239_ OR2X2
XAND2X2_1 vdd gnd _261_ _250_ _262_ AND2X2
XNAND2X1_3 vdd _283_ gnd _174_ _262_ NAND2X1
XINVX1_6 _283_ _284_ vdd gnd INVX1
XNOR2X1_5 vdd _262_ gnd _295_ _174_ NOR2X1
XNOR2X1_6 vdd _284_ gnd _0_[0] _295_ NOR2X1
XINVX1_7 cos_gamma[0_bF$buf3] _315_ vdd gnd INVX1
XINVX1_8 cos_gamma[1] _326_ vdd gnd INVX1
XINVX1_9 _152_ _337_ vdd gnd INVX1
XINVX1_10 cos_alpha[1_bF$buf3] _358_ vdd gnd INVX1
XNAND2X1_4 vdd _359_ gnd cos_alpha[0_bF$buf2] vertices[1] NAND2X1
XOAI21X1_1 gnd vdd _141_ _358_ _370_ _359_ OAI21X1
XNAND2X1_5 vdd _381_ gnd vertices[1] cos_alpha[1_bF$buf2] NAND2X1
XOAI21X1_2 gnd vdd _381_ _337_ _392_ _370_ OAI21X1
XOAI22X1_1 gnd vdd _392_ _315_ _326_ _337_ _403_ OAI22X1
XNOR2X1_7 vdd _392_ gnd _414_ _326_ NOR2X1
XINVX1_11 _414_ _425_ vdd gnd INVX1
XOAI21X1_3 gnd vdd _163_ _425_ _436_ _403_ OAI21X1
XOAI21X1_4 gnd vdd _196_ _207_ _447_ _250_ OAI21X1
XNOR2X1_8 vdd dx[1] gnd _468_ dy[1] NOR2X1
XINVX1_12 dy[1] _469_ vdd gnd INVX1
XINVX1_13 dx[1] _480_ vdd gnd INVX1
XNOR2X1_9 vdd _480_ gnd _491_ _469_ NOR2X1
XNOR2X1_10 vdd _491_ gnd _502_ _468_ NOR2X1
XNAND2X1_6 vdd _513_ gnd dz[1] _502_ NAND2X1
XOR2X2_2 _524_ dz[1] vdd gnd _502_ OR2X2
XAND2X2_2 vdd gnd _524_ _513_ _535_ AND2X2
XXNOR2X1_1 _535_ _447_ gnd vdd _546_ XNOR2X1
XNOR2X1_11 vdd _546_ gnd _557_ _436_ NOR2X1
XINVX1_14 _557_ _568_ vdd gnd INVX1
XNAND2X1_7 vdd _579_ gnd _436_ _546_ NAND2X1
XAND2X2_3 vdd gnd _568_ _579_ _589_ AND2X2
XAND2X2_4 vdd gnd _589_ _284_ _600_ AND2X2
XNOR2X1_12 vdd _589_ gnd _611_ _284_ NOR2X1
XNOR2X1_13 vdd _600_ gnd _0_[1] _611_ NOR2X1
XNOR2X1_14 vdd _425_ gnd _632_ _163_ NOR2X1
XNAND2X1_8 vdd _643_ gnd _447_ _535_ NAND2X1
XOAI21X1_5 gnd vdd _436_ _546_ _654_ _643_ OAI21X1
XNAND2X1_9 vdd _665_ gnd cos_gamma[2] _152_ NAND2X1
XNOR2X1_15 vdd _337_ gnd _676_ _381_ NOR2X1
XINVX1_15 cos_alpha[2_bF$buf3] _687_ vdd gnd INVX1
XNOR2X1_16 vdd _687_ gnd _698_ _141_ NOR2X1
XNAND2X1_10 vdd _709_ gnd cos_alpha[0_bF$buf1] vertices[2] NAND2X1
XOR2X2_3 _720_ _709_ vdd gnd _381_ OR2X2
XINVX1_16 vertices[2] _741_ vdd gnd INVX1
XOAI21X1_6 gnd vdd _130_ _741_ _742_ _381_ OAI21X1
XNAND3X1_1 _742_ vdd gnd _698_ _720_ _753_ NAND3X1
XNAND2X1_11 vdd _764_ gnd cos_alpha[1_bF$buf1] vertices[2] NAND2X1
XOAI21X1_7 gnd vdd _359_ _764_ _775_ _742_ OAI21X1
XOAI21X1_8 gnd vdd _141_ _687_ _786_ _775_ OAI21X1
XAND2X2_5 vdd gnd _786_ _753_ _797_ AND2X2
XNOR2X1_17 vdd _797_ gnd _808_ _676_ NOR2X1
XNAND2X1_12 vdd _819_ gnd _676_ _797_ NAND2X1
XINVX1_17 _819_ _830_ vdd gnd INVX1
XNOR2X1_18 vdd _830_ gnd _841_ _808_ NOR2X1
XINVX1_18 _841_ _852_ vdd gnd INVX1
XOAI21X1_9 gnd vdd _315_ _852_ _863_ _425_ OAI21X1
XNAND3X1_2 _414_ vdd gnd cos_gamma[0_bF$buf2] _841_ _874_ NAND3X1
XNAND2X1_13 vdd _885_ gnd _874_ _863_ NAND2X1
XXOR2X1_1 _895_ vdd _665_ _885_ gnd XOR2X1
XOAI21X1_10 gnd vdd _469_ _480_ _906_ _513_ OAI21X1
XINVX1_19 dz[2] _917_ vdd gnd INVX1
XNOR2X1_19 vdd dx[2] gnd _938_ dy[2] NOR2X1
XNAND2X1_14 vdd _949_ gnd dy[2] dx[2] NAND2X1
XINVX1_20 _949_ _960_ vdd gnd INVX1
XNOR2X1_20 vdd _960_ gnd _961_ _938_ NOR2X1
XXNOR2X1_2 _961_ _917_ gnd vdd _982_ XNOR2X1
XNAND2X1_15 vdd _983_ gnd _982_ _906_ NAND2X1
XOR2X2_4 _994_ _982_ vdd gnd _906_ OR2X2
XNAND2X1_16 vdd _1005_ gnd _983_ _994_ NAND2X1
XXNOR2X1_3 _895_ _1005_ gnd vdd _1016_ XNOR2X1
XXOR2X1_2 _1027_ vdd _654_ _1016_ gnd XOR2X1
XXOR2X1_3 _1038_ vdd _632_ _1027_ gnd XOR2X1
XNAND2X1_17 vdd _1059_ gnd _600_ _1038_ NAND2X1
XINVX1_21 _1059_ _1060_ vdd gnd INVX1
XNOR2X1_21 vdd _1038_ gnd _1071_ _600_ NOR2X1
XNOR2X1_22 vdd _1060_ gnd _0_[2] _1071_ NOR2X1
XNAND2X1_18 vdd _1092_ gnd _654_ _1016_ NAND2X1
XNAND2X1_19 vdd _1103_ gnd _632_ _1027_ NAND2X1
XNAND2X1_20 vdd _1114_ gnd _1092_ _1103_ NAND2X1
XINVX1_22 cos_gamma[3] _1125_ vdd gnd INVX1
XOAI21X1_11 gnd vdd _665_ _885_ _1136_ _874_ OAI21X1
XINVX1_23 _1136_ _1147_ vdd gnd INVX1
XOAI21X1_12 gnd vdd _1125_ _337_ _1158_ _1147_ OAI21X1
XNAND2X1_21 vdd _1169_ gnd cos_gamma[3] _152_ NAND2X1
XNOR2X1_23 vdd _1147_ gnd _1190_ _1169_ NOR2X1
XINVX1_24 _1190_ _1191_ vdd gnd INVX1
XAND2X2_6 vdd gnd _1191_ _1158_ _1202_ AND2X2
XINVX1_25 _895_ _1213_ vdd gnd INVX1
XOAI21X1_13 gnd vdd _1005_ _1213_ _1224_ _983_ OAI21X1
XINVX1_26 _1224_ _1234_ vdd gnd INVX1
XINVX1_27 _392_ _1245_ vdd gnd INVX1
XNAND2X1_22 vdd _1256_ gnd cos_gamma[2] _1245_ NAND2X1
XNAND2X1_23 vdd _1267_ gnd cos_gamma[1] _841_ NAND2X1
XINVX1_28 cos_alpha[3] _1278_ vdd gnd INVX1
XAND2X2_7 vdd gnd _753_ _720_ _1289_ AND2X2
XNAND2X1_24 vdd _1300_ gnd vertices[1] cos_alpha[2_bF$buf2] NAND2X1
XNAND2X1_25 vdd _1311_ gnd cos_alpha[1_bF$buf0] vertices[3] NAND2X1
XINVX1_29 vertices[3] _1322_ vdd gnd INVX1
XOAI21X1_14 gnd vdd _130_ _1322_ _1333_ _764_ OAI21X1
XOAI21X1_15 gnd vdd _709_ _1311_ _1344_ _1333_ OAI21X1
XXNOR2X1_4 _1344_ _1300_ gnd vdd _1355_ XNOR2X1
XNOR2X1_24 vdd _1355_ gnd _1366_ _1289_ NOR2X1
XAND2X2_8 vdd gnd _1355_ _1289_ _1377_ AND2X2
XNOR2X1_25 vdd _1377_ gnd _1388_ _1366_ NOR2X1
XOAI21X1_16 gnd vdd _141_ _1278_ _1399_ _1388_ OAI21X1
XNOR2X1_26 vdd _1278_ gnd _1410_ _141_ NOR2X1
XOAI21X1_17 gnd vdd _1366_ _1377_ _1421_ _1410_ OAI21X1
XNAND3X1_3 _1421_ vdd gnd _819_ _1399_ _1432_ NAND3X1
XINVX1_30 _1410_ _1443_ vdd gnd INVX1
XAND2X2_9 vdd gnd _1388_ _1443_ _1454_ AND2X2
XINVX1_31 _1421_ _1465_ vdd gnd INVX1
XOAI21X1_18 gnd vdd _1465_ _1454_ _1476_ _830_ OAI21X1
XAND2X2_10 vdd gnd _1476_ _1432_ _1487_ AND2X2
XNAND2X1_26 vdd _1498_ gnd cos_gamma[0_bF$buf1] _1487_ NAND2X1
XXNOR2X1_5 _1498_ _1267_ gnd vdd _1509_ XNOR2X1
XXNOR2X1_6 _1509_ _1256_ gnd vdd _1530_ XNOR2X1
XOAI21X1_19 gnd vdd _917_ _938_ _1531_ _949_ OAI21X1
XINVX1_32 dz[3] _1542_ vdd gnd INVX1
XNOR2X1_27 vdd dx[3] gnd _1552_ dy[3] NOR2X1
XNAND2X1_27 vdd _1563_ gnd dy[3] dx[3] NAND2X1
XINVX1_33 _1563_ _1574_ vdd gnd INVX1
XNOR2X1_28 vdd _1574_ gnd _1585_ _1552_ NOR2X1
XXNOR2X1_7 _1585_ _1542_ gnd vdd _1596_ XNOR2X1
XXNOR2X1_8 _1596_ _1531_ gnd vdd _1607_ XNOR2X1
XOR2X2_5 _1618_ _1607_ vdd gnd _1530_ OR2X2
XNAND2X1_28 vdd _1629_ gnd _1607_ _1530_ NAND2X1
XNAND2X1_29 vdd _1640_ gnd _1629_ _1618_ NAND2X1
XOR2X2_6 _1651_ _1234_ vdd gnd _1640_ OR2X2
XNAND2X1_30 vdd _1662_ gnd _1234_ _1640_ NAND2X1
XAND2X2_11 vdd gnd _1651_ _1662_ _1673_ AND2X2
XXOR2X1_4 _1684_ vdd _1202_ _1673_ gnd XOR2X1
XXNOR2X1_9 _1684_ _1114_ gnd vdd _1695_ XNOR2X1
XXNOR2X1_10 _1695_ _1060_ gnd vdd _0_[3] XNOR2X1
XNOR2X1_29 vdd _1695_ gnd _1716_ _1059_ NOR2X1
XNAND2X1_31 vdd _1727_ gnd _1114_ _1684_ NAND2X1
XINVX1_34 _1651_ _1738_ vdd gnd INVX1
XAOI21X1_1 gnd vdd _1202_ _1662_ _1749_ _1738_ AOI21X1
XINVX1_35 _1749_ _1770_ vdd gnd INVX1
XINVX1_36 cos_gamma[4] _1781_ vdd gnd INVX1
XNOR2X1_30 vdd _392_ gnd _1792_ _1781_ NOR2X1
XINVX1_37 _1792_ _1793_ vdd gnd INVX1
XNAND2X1_32 vdd _1814_ gnd cos_gamma[3] _1245_ NAND2X1
XOAI21X1_20 gnd vdd _1781_ _337_ _1815_ _1814_ OAI21X1
XOAI21X1_21 gnd vdd _1169_ _1793_ _1826_ _1815_ OAI21X1
XNOR2X1_31 vdd _1498_ gnd _1837_ _1267_ NOR2X1
XNOR2X1_32 vdd _1509_ gnd _1848_ _1256_ NOR2X1
XNOR2X1_33 vdd _1848_ gnd _1859_ _1837_ NOR2X1
XNAND2X1_33 vdd _1869_ gnd _1826_ _1859_ NAND2X1
XNOR2X1_34 vdd _1859_ gnd _1890_ _1826_ NOR2X1
XINVX1_38 _1890_ _1891_ vdd gnd INVX1
XNAND2X1_34 vdd _1902_ gnd _1869_ _1891_ NAND2X1
XINVX1_39 _1902_ _1913_ vdd gnd INVX1
XNAND2X1_35 vdd _1924_ gnd _1531_ _1596_ NAND2X1
XOAI21X1_22 gnd vdd _1607_ _1530_ _1935_ _1924_ OAI21X1
XINVX1_40 _1935_ _1946_ vdd gnd INVX1
XINVX1_41 cos_gamma[2] _1957_ vdd gnd INVX1
XNOR2X1_35 vdd _852_ gnd _1968_ _1957_ NOR2X1
XINVX1_42 _1968_ _1979_ vdd gnd INVX1
XINVX1_43 _1487_ _1990_ vdd gnd INVX1
XNAND2X1_36 vdd _2001_ gnd _1289_ _1355_ NAND2X1
XAOI21X1_2 gnd vdd _1410_ _2001_ _2012_ _1366_ AOI21X1
XINVX1_44 _2012_ _2023_ vdd gnd INVX1
XINVX1_45 vertices[1] _2034_ vdd gnd INVX1
XINVX1_46 cos_alpha[4] _2045_ vdd gnd INVX1
XOAI22X1_2 gnd vdd _1278_ _2034_ _141_ _2045_ _2056_ OAI22X1
XNAND2X1_37 vdd _2067_ gnd vertices[1] cos_alpha[4] NAND2X1
XOAI21X1_23 gnd vdd _2067_ _1443_ _2078_ _2056_ OAI21X1
XINVX1_47 _2078_ _2089_ vdd gnd INVX1
XINVX1_48 _1300_ _2100_ vdd gnd INVX1
XNAND2X1_38 vdd _2121_ gnd cos_alpha[0_bF$buf0] vertices[3] NAND2X1
XNOR2X1_36 vdd _2121_ gnd _2122_ _764_ NOR2X1
XAOI21X1_3 gnd vdd _1333_ _2100_ _2133_ _2122_ AOI21X1
XINVX1_49 _2133_ _2144_ vdd gnd INVX1
XNAND2X1_39 vdd _2155_ gnd cos_alpha[1_bF$buf3] vertices[4] NAND2X1
XINVX1_50 vertices[4] _2166_ vdd gnd INVX1
XOAI21X1_24 gnd vdd _130_ _2166_ _2177_ _1311_ OAI21X1
XOAI21X1_25 gnd vdd _2121_ _2155_ _2184_ _2177_ OAI21X1
XOAI21X1_26 gnd vdd _741_ _687_ _2185_ _2184_ OAI21X1
XNAND2X1_40 vdd _2186_ gnd vertices[2] cos_alpha[2_bF$buf1] NAND2X1
XINVX1_51 _2186_ _2187_ vdd gnd INVX1
XINVX1_52 _2121_ _2188_ vdd gnd INVX1
XAND2X2_12 vdd gnd cos_alpha[1_bF$buf2] vertices[4] _2189_ AND2X2
XNAND2X1_41 vdd _2190_ gnd _2189_ _2188_ NAND2X1
XNAND3X1_4 _2177_ vdd gnd _2187_ _2190_ _2191_ NAND3X1
XNAND3X1_5 _2185_ vdd gnd _2191_ _2144_ _2192_ NAND3X1
XNAND2X1_42 vdd _2193_ gnd _2191_ _2185_ NAND2X1
XNAND2X1_43 vdd _2194_ gnd _2133_ _2193_ NAND2X1
XNAND3X1_6 _2192_ vdd gnd _2089_ _2194_ _2195_ NAND3X1
XINVX1_53 _2195_ _2196_ vdd gnd INVX1
XAOI21X1_4 gnd vdd _2194_ _2192_ _2197_ _2089_ AOI21X1
XOAI21X1_27 gnd vdd _2197_ _2196_ _2198_ _2023_ OAI21X1
XINVX1_54 _2197_ _2199_ vdd gnd INVX1
XNAND3X1_7 _2195_ vdd gnd _2012_ _2199_ _2200_ NAND3X1
XNAND3X1_8 _2200_ vdd gnd _2198_ _1476_ _2201_ NAND3X1
XAOI21X1_5 gnd vdd _1399_ _1421_ _2202_ _819_ AOI21X1
XNAND2X1_44 vdd _2203_ gnd _2200_ _2198_ NAND2X1
XNAND2X1_45 vdd _2204_ gnd _2202_ _2203_ NAND2X1
XNAND2X1_46 vdd _2205_ gnd _2204_ _2201_ NAND2X1
XOAI22X1_3 gnd vdd _2205_ _315_ _326_ _1990_ _2206_ OAI22X1
XAND2X2_13 vdd gnd _2201_ _2204_ _2207_ AND2X2
XNAND2X1_47 vdd _2208_ gnd cos_gamma[1] _2207_ NAND2X1
XOAI21X1_28 gnd vdd _1498_ _2208_ _2209_ _2206_ OAI21X1
XXNOR2X1_11 _2209_ _1979_ gnd vdd _2210_ XNOR2X1
XOAI21X1_29 gnd vdd _1542_ _1552_ _2211_ _1563_ OAI21X1
XINVX1_55 dz[4] _2212_ vdd gnd INVX1
XNOR2X1_37 vdd dx[4] gnd _2213_ dy[4] NOR2X1
XNAND2X1_48 vdd _2214_ gnd dy[4] dx[4] NAND2X1
XINVX1_56 _2214_ _2215_ vdd gnd INVX1
XNOR2X1_38 vdd _2215_ gnd _2216_ _2213_ NOR2X1
XXNOR2X1_12 _2216_ _2212_ gnd vdd _2217_ XNOR2X1
XXOR2X1_5 _2218_ vdd _2211_ _2217_ gnd XOR2X1
XINVX1_57 _2218_ _2219_ vdd gnd INVX1
XOR2X2_7 _2220_ _2219_ vdd gnd _2210_ OR2X2
XNAND2X1_49 vdd _2221_ gnd _2219_ _2210_ NAND2X1
XNAND2X1_50 vdd _2222_ gnd _2221_ _2220_ NAND2X1
XNOR2X1_39 vdd _2222_ gnd _2223_ _1946_ NOR2X1
XNAND2X1_51 vdd _2224_ gnd _1946_ _2222_ NAND2X1
XINVX1_58 _2224_ _2225_ vdd gnd INVX1
XNOR2X1_40 vdd _2225_ gnd _2226_ _2223_ NOR2X1
XNAND2X1_52 vdd _2227_ gnd _1913_ _2226_ NAND2X1
XOAI21X1_30 gnd vdd _2223_ _2225_ _2228_ _1902_ OAI21X1
XNAND3X1_9 _2227_ vdd gnd _2228_ _1770_ _2229_ NAND3X1
XAND2X2_14 vdd gnd _2226_ _1913_ _2230_ AND2X2
XINVX1_59 _2228_ _2231_ vdd gnd INVX1
XOAI21X1_31 gnd vdd _2231_ _2230_ _2232_ _1749_ OAI21X1
XAOI21X1_6 gnd vdd _2232_ _2229_ _2233_ _1190_ AOI21X1
XNAND3X1_10 _2229_ vdd gnd _1190_ _2232_ _2234_ NAND3X1
XINVX1_60 _2234_ _2235_ vdd gnd INVX1
XOAI21X1_32 gnd vdd _2233_ _2235_ _2236_ _1727_ OAI21X1
XINVX1_61 _1727_ _2237_ vdd gnd INVX1
XINVX1_62 _2229_ _2238_ vdd gnd INVX1
XAOI21X1_7 gnd vdd _2227_ _2228_ _2239_ _1770_ AOI21X1
XOAI21X1_33 gnd vdd _2239_ _2238_ _2240_ _1191_ OAI21X1
XNAND3X1_11 _2234_ vdd gnd _2237_ _2240_ _2241_ NAND3X1
XNAND3X1_12 _2241_ vdd gnd _1716_ _2236_ _2242_ NAND3X1
XINVX1_63 _2242_ _2243_ vdd gnd INVX1
XAOI21X1_8 gnd vdd _2236_ _2241_ _2244_ _1716_ AOI21X1
XNOR2X1_41 vdd _2243_ gnd _0_[4] _2244_ NOR2X1
XNOR2X1_42 vdd _2235_ gnd _2245_ _2233_ NOR2X1
XOAI21X1_34 gnd vdd _1191_ _2239_ _2246_ _2229_ OAI21X1
XAOI21X1_9 gnd vdd _1913_ _2224_ _2247_ _2223_ AOI21X1
XINVX1_64 _2247_ _2248_ vdd gnd INVX1
XINVX1_65 cos_gamma[5] _2249_ vdd gnd INVX1
XNAND2X1_53 vdd _2250_ gnd cos_gamma[3] _841_ NAND2X1
XOAI21X1_35 gnd vdd _1781_ _392_ _2251_ _2250_ OAI21X1
XNAND2X1_54 vdd _2252_ gnd cos_gamma[4] _841_ NAND2X1
XOAI21X1_36 gnd vdd _1814_ _2252_ _2253_ _2251_ OAI21X1
XOAI21X1_37 gnd vdd _2249_ _337_ _2254_ _2253_ OAI21X1
XINVX1_66 _2253_ _2255_ vdd gnd INVX1
XNAND3X1_13 _152_ vdd gnd cos_gamma[5] _2255_ _2256_ NAND3X1
XNAND2X1_55 vdd _2257_ gnd _2254_ _2256_ NAND2X1
XINVX1_67 _1498_ _2258_ vdd gnd INVX1
XINVX1_68 _2208_ _2259_ vdd gnd INVX1
XAOI22X1_1 gnd vdd _2258_ _2259_ _2260_ _1968_ _2206_ AOI22X1
XOR2X2_8 _2261_ _2257_ vdd gnd _2260_ OR2X2
XNAND2X1_56 vdd _2262_ gnd _2257_ _2260_ NAND2X1
XNAND2X1_57 vdd _2263_ gnd _2262_ _2261_ NAND2X1
XOAI21X1_38 gnd vdd _1169_ _1793_ _2264_ _2263_ OAI21X1
XNOR2X1_43 vdd _1793_ gnd _2265_ _1169_ NOR2X1
XNAND3X1_14 _2262_ vdd gnd _2265_ _2261_ _2266_ NAND3X1
XNAND2X1_58 vdd _2267_ gnd _2266_ _2264_ NAND2X1
XINVX1_69 _2267_ _2268_ vdd gnd INVX1
XNAND2X1_59 vdd _2269_ gnd _2211_ _2217_ NAND2X1
XOAI21X1_39 gnd vdd _2219_ _2210_ _2270_ _2269_ OAI21X1
XNOR2X1_44 vdd _1990_ gnd _2271_ _1957_ NOR2X1
XINVX1_70 _2271_ _2272_ vdd gnd INVX1
XAND2X2_15 vdd gnd vertices[1] cos_alpha[4] _2273_ AND2X2
XNAND2X1_60 vdd _2274_ gnd _2273_ _1410_ NAND2X1
XAOI21X1_10 gnd vdd _2185_ _2191_ _2275_ _2144_ AOI21X1
XOAI21X1_40 gnd vdd _2078_ _2275_ _2276_ _2192_ OAI21X1
XINVX1_71 cos_alpha[5] _2277_ vdd gnd INVX1
XNOR2X1_45 vdd _2277_ gnd _2278_ _141_ NOR2X1
XAND2X2_16 vdd gnd vertices[2] cos_alpha[3] _2279_ AND2X2
XNAND2X1_61 vdd _2280_ gnd _2273_ _2279_ NAND2X1
XOAI21X1_41 gnd vdd _741_ _1278_ _2281_ _2067_ OAI21X1
XNAND3X1_15 _2281_ vdd gnd _2278_ _2280_ _2282_ NAND3X1
XINVX1_72 _2278_ _2283_ vdd gnd INVX1
XNAND2X1_62 vdd _2284_ gnd vertices[2] cos_alpha[3] NAND2X1
XNOR2X1_46 vdd _2284_ gnd _2285_ _2067_ NOR2X1
XNOR2X1_47 vdd _2279_ gnd _2286_ _2273_ NOR2X1
XOAI21X1_42 gnd vdd _2285_ _2286_ _2287_ _2283_ OAI21X1
XNAND2X1_63 vdd _2288_ gnd _2282_ _2287_ NAND2X1
XAOI22X1_2 gnd vdd _2187_ _2177_ _2289_ _2188_ _2189_ AOI22X1
XAND2X2_17 vdd gnd cos_alpha[0_bF$buf3] vertices[5] _2290_ AND2X2
XNAND2X1_64 vdd _2291_ gnd _2189_ _2290_ NAND2X1
XINVX1_73 vertices[5] _2292_ vdd gnd INVX1
XOAI21X1_43 gnd vdd _130_ _2292_ _2293_ _2155_ OAI21X1
XAOI22X1_3 gnd vdd _2293_ _2291_ _2294_ cos_alpha[2_bF$buf0] vertices[3] AOI22X1
XNAND2X1_65 vdd _2295_ gnd cos_alpha[2_bF$buf3] vertices[3] NAND2X1
XOAI21X1_44 gnd vdd _358_ _2166_ _2296_ _2290_ OAI21X1
XOAI21X1_45 gnd vdd _130_ _2292_ _2297_ _2189_ OAI21X1
XAOI21X1_11 gnd vdd _2296_ _2297_ _2298_ _2295_ AOI21X1
XNOR3X1_1 vdd gnd _2294_ _2298_ _2289_ _2299_ NOR3X1
XNAND2X1_66 vdd _2300_ gnd cos_alpha[0_bF$buf2] vertices[4] NAND2X1
XAND2X2_18 vdd gnd _1311_ _2300_ _2301_ AND2X2
XOAI21X1_46 gnd vdd _2186_ _2301_ _2302_ _2190_ OAI21X1
XNAND3X1_16 _2296_ vdd gnd _2295_ _2297_ _2303_ NAND3X1
XINVX1_74 _2295_ _2304_ vdd gnd INVX1
XNAND3X1_17 _2293_ vdd gnd _2304_ _2291_ _2305_ NAND3X1
XAOI21X1_12 gnd vdd _2303_ _2305_ _2306_ _2302_ AOI21X1
XOAI21X1_47 gnd vdd _2306_ _2299_ _2307_ _2288_ OAI21X1
XNAND3X1_18 _2281_ vdd gnd _2280_ _2283_ _2308_ NAND3X1
XOAI21X1_48 gnd vdd _2285_ _2286_ _2309_ _2278_ OAI21X1
XNAND2X1_67 vdd _2310_ gnd _2309_ _2308_ NAND2X1
XNAND3X1_19 _2303_ vdd gnd _2305_ _2302_ _2311_ NAND3X1
XOAI21X1_49 gnd vdd _2294_ _2298_ _2312_ _2289_ OAI21X1
XNAND3X1_20 _2310_ vdd gnd _2311_ _2312_ _2313_ NAND3X1
XNAND3X1_21 _2307_ vdd gnd _2313_ _2276_ _2314_ NAND3X1
XINVX1_75 _2192_ _2315_ vdd gnd INVX1
XAOI21X1_13 gnd vdd _2194_ _2089_ _2316_ _2315_ AOI21X1
XAOI21X1_14 gnd vdd _2312_ _2311_ _2317_ _2310_ AOI21X1
XINVX1_76 _2313_ _2318_ vdd gnd INVX1
XOAI21X1_50 gnd vdd _2317_ _2318_ _2319_ _2316_ OAI21X1
XNAND3X1_22 _2314_ vdd gnd _2274_ _2319_ _2320_ NAND3X1
XINVX1_77 _2274_ _2321_ vdd gnd INVX1
XOAI21X1_51 gnd vdd _2317_ _2318_ _2322_ _2276_ OAI21X1
XNAND3X1_23 _2313_ vdd gnd _2307_ _2316_ _2323_ NAND3X1
XNAND3X1_24 _2322_ vdd gnd _2321_ _2323_ _2324_ NAND3X1
XNAND2X1_68 vdd _2325_ gnd _2320_ _2324_ NAND2X1
XNOR3X1_2 vdd gnd _2012_ _2196_ _2197_ _2326_ NOR3X1
XAOI21X1_15 gnd vdd _2198_ _2200_ _2327_ _1476_ AOI21X1
XNOR2X1_48 vdd _2327_ gnd _2328_ _2326_ NOR2X1
XNAND2X1_69 vdd _2329_ gnd _2325_ _2328_ NAND2X1
XINVX1_78 _2325_ _2330_ vdd gnd INVX1
XOAI21X1_52 gnd vdd _2326_ _2327_ _2331_ _2330_ OAI21X1
XNAND2X1_70 vdd _2332_ gnd _2331_ _2329_ NAND2X1
XAOI21X1_16 gnd vdd _2332_ cos_gamma[0_bF$buf0] _2333_ _2259_ AOI21X1
XOAI21X1_53 gnd vdd _2326_ _2327_ _2334_ _2325_ OAI21X1
XNAND2X1_71 vdd _2335_ gnd _2330_ _2328_ NAND2X1
XNAND3X1_25 _2334_ vdd gnd cos_gamma[0_bF$buf4] _2335_ _2336_ NAND3X1
XNOR2X1_49 vdd _2336_ gnd _2337_ _2208_ NOR2X1
XOAI21X1_54 gnd vdd _2337_ _2333_ _2338_ _2272_ OAI21X1
XOAI21X1_55 gnd vdd _326_ _2205_ _2339_ _2336_ OAI21X1
XINVX1_79 _2337_ _2340_ vdd gnd INVX1
XNAND3X1_26 _2339_ vdd gnd _2271_ _2340_ _2341_ NAND3X1
XOAI21X1_56 gnd vdd _2212_ _2213_ _2342_ _2214_ OAI21X1
XINVX1_80 dz[5] _2343_ vdd gnd INVX1
XNOR2X1_50 vdd dx[5] gnd _2344_ dy[5] NOR2X1
XNAND2X1_72 vdd _2345_ gnd dy[5] dx[5] NAND2X1
XINVX1_81 _2345_ _2346_ vdd gnd INVX1
XNOR2X1_51 vdd _2346_ gnd _2347_ _2344_ NOR2X1
XXNOR2X1_13 _2347_ _2343_ gnd vdd _2348_ XNOR2X1
XXOR2X1_6 _2349_ vdd _2342_ _2348_ gnd XOR2X1
XNAND3X1_27 _2349_ vdd gnd _2338_ _2341_ _2350_ NAND3X1
XNAND2X1_73 vdd _2351_ gnd _2338_ _2341_ NAND2X1
XINVX1_82 _2349_ _2352_ vdd gnd INVX1
XNAND2X1_74 vdd _2353_ gnd _2352_ _2351_ NAND2X1
XNAND3X1_28 _2350_ vdd gnd _2270_ _2353_ _2354_ NAND3X1
XAOI21X1_17 gnd vdd _2353_ _2350_ _2355_ _2270_ AOI21X1
XINVX1_83 _2355_ _2356_ vdd gnd INVX1
XNAND3X1_29 _2354_ vdd gnd _2268_ _2356_ _2357_ NAND3X1
XINVX1_84 _2354_ _2358_ vdd gnd INVX1
XOAI21X1_57 gnd vdd _2355_ _2358_ _2359_ _2267_ OAI21X1
XNAND3X1_30 _2248_ vdd gnd _2359_ _2357_ _2360_ NAND3X1
XINVX1_85 _2360_ _2361_ vdd gnd INVX1
XAOI21X1_18 gnd vdd _2357_ _2359_ _2362_ _2248_ AOI21X1
XOAI21X1_58 gnd vdd _2362_ _2361_ _2363_ _1891_ OAI21X1
XINVX1_86 _2362_ _2364_ vdd gnd INVX1
XNAND3X1_31 _2360_ vdd gnd _1890_ _2364_ _2365_ NAND3X1
XNAND3X1_32 _2365_ vdd gnd _2246_ _2363_ _2366_ NAND3X1
XINVX1_87 _2246_ _2367_ vdd gnd INVX1
XNAND2X1_75 vdd _2368_ gnd _2365_ _2363_ NAND2X1
XNAND2X1_76 vdd _2369_ gnd _2367_ _2368_ NAND2X1
XAOI22X1_4 gnd vdd _2237_ _2245_ _2370_ _2369_ _2366_ AOI22X1
XINVX1_88 _2241_ _2371_ vdd gnd INVX1
XNAND3X1_33 _2369_ vdd gnd _2366_ _2371_ _2372_ NAND3X1
XINVX1_89 _2372_ _2373_ vdd gnd INVX1
XNOR2X1_52 vdd _2373_ gnd _2374_ _2370_ NOR2X1
XXNOR2X1_14 _2374_ _2242_ gnd vdd _0_[5] XNOR2X1
XOAI21X1_59 gnd vdd _1891_ _2362_ _2375_ _2360_ OAI21X1
XINVX1_90 _2375_ _2376_ vdd gnd INVX1
XINVX1_91 cos_gamma[6] _2377_ vdd gnd INVX1
XAND2X2_19 vdd gnd _2266_ _2261_ _2378_ AND2X2
XOAI21X1_60 gnd vdd _2377_ _337_ _2379_ _2378_ OAI21X1
XNAND2X1_77 vdd _2380_ gnd cos_gamma[6] _152_ NAND2X1
XNOR2X1_53 vdd _2378_ gnd _2381_ _2380_ NOR2X1
XINVX1_92 _2381_ _2382_ vdd gnd INVX1
XNAND2X1_78 vdd _2383_ gnd _2379_ _2382_ NAND2X1
XINVX1_93 _2383_ _2384_ vdd gnd INVX1
XOAI21X1_61 gnd vdd _2267_ _2355_ _2385_ _2354_ OAI21X1
XOAI21X1_62 gnd vdd _1793_ _2250_ _2386_ _2256_ OAI21X1
XINVX1_94 _2386_ _2387_ vdd gnd INVX1
XNOR2X1_54 vdd _392_ gnd _2388_ _2249_ NOR2X1
XINVX1_95 _2388_ _2389_ vdd gnd INVX1
XNAND2X1_79 vdd _2390_ gnd cos_gamma[3] _1487_ NAND2X1
XOAI21X1_63 gnd vdd _1781_ _852_ _2391_ _2390_ OAI21X1
XNAND2X1_80 vdd _2392_ gnd cos_gamma[4] _1487_ NAND2X1
XOAI21X1_64 gnd vdd _2250_ _2392_ _2393_ _2391_ OAI21X1
XXNOR2X1_15 _2393_ _2389_ gnd vdd _2394_ XNOR2X1
XAOI21X1_19 gnd vdd _2339_ _2271_ _2395_ _2337_ AOI21X1
XNOR2X1_55 vdd _2395_ gnd _2396_ _2394_ NOR2X1
XAND2X2_20 vdd gnd _2395_ _2394_ _2397_ AND2X2
XOAI21X1_65 gnd vdd _2396_ _2397_ _2398_ _2387_ OAI21X1
XOR2X2_9 _2399_ _2394_ vdd gnd _2395_ OR2X2
XNAND2X1_81 vdd _2400_ gnd _2394_ _2395_ NAND2X1
XNAND3X1_34 _2400_ vdd gnd _2386_ _2399_ _2401_ NAND3X1
XAND2X2_21 vdd gnd _2398_ _2401_ _2402_ AND2X2
XNAND2X1_82 vdd _2403_ gnd _2342_ _2348_ NAND2X1
XOAI21X1_66 gnd vdd _2352_ _2351_ _2404_ _2403_ OAI21X1
XNOR2X1_56 vdd _2205_ gnd _2405_ _1957_ NOR2X1
XINVX1_96 _2405_ _2406_ vdd gnd INVX1
XNAND3X1_35 _2334_ vdd gnd cos_gamma[1] _2335_ _2407_ NAND3X1
XNAND2X1_83 vdd _2408_ gnd _2325_ _2327_ NAND2X1
XNAND3X1_36 _2314_ vdd gnd _2321_ _2319_ _2409_ NAND3X1
XNAND3X1_37 _2322_ vdd gnd _2274_ _2323_ _2410_ NAND3X1
XNAND3X1_38 _2409_ vdd gnd _2326_ _2410_ _2411_ NAND3X1
XAOI21X1_20 gnd vdd _2307_ _2313_ _2412_ _2276_ AOI21X1
XOAI21X1_67 gnd vdd _2274_ _2412_ _2413_ _2314_ OAI21X1
XNAND2X1_84 vdd _2414_ gnd vertices[0] cos_alpha[6] NAND2X1
XINVX1_97 _2414_ _2415_ vdd gnd INVX1
XOAI21X1_68 gnd vdd _2286_ _2283_ _2416_ _2280_ OAI21X1
XNAND2X1_85 vdd _2417_ gnd _2415_ _2416_ NAND2X1
XINVX1_98 _2417_ _2418_ vdd gnd INVX1
XNOR2X1_57 vdd _2416_ gnd _2419_ _2415_ NOR2X1
XOR2X2_10 _2420_ _2419_ vdd gnd _2418_ OR2X2
XAOI21X1_21 gnd vdd _2310_ _2312_ _2421_ _2299_ AOI21X1
XNAND2X1_86 vdd _2422_ gnd vertices[1] cos_alpha[5] NAND2X1
XINVX1_99 _2422_ _2423_ vdd gnd INVX1
XAND2X2_22 vdd gnd vertices[2] cos_alpha[4] _2424_ AND2X2
XAND2X2_23 vdd gnd vertices[3] cos_alpha[3] _2425_ AND2X2
XNAND2X1_87 vdd _2426_ gnd _2424_ _2425_ NAND2X1
XOAI22X1_4 gnd vdd _1278_ _1322_ _741_ _2045_ _2427_ OAI22X1
XNAND3X1_39 _2427_ vdd gnd _2423_ _2426_ _2428_ NAND3X1
XOAI21X1_69 gnd vdd _741_ _2045_ _2429_ _2425_ OAI21X1
XOAI21X1_70 gnd vdd _1322_ _1278_ _2430_ _2424_ OAI21X1
XNAND3X1_40 _2429_ vdd gnd _2422_ _2430_ _2431_ NAND3X1
XAOI22X1_5 gnd vdd cos_alpha[1_bF$buf1] vertices[4] _2432_ cos_alpha[0_bF$buf1] vertices[5] AOI22X1
XOAI21X1_71 gnd vdd _2295_ _2432_ _2433_ _2291_ OAI21X1
XNAND2X1_88 vdd _2434_ gnd cos_alpha[2_bF$buf2] vertices[4] NAND2X1
XNAND2X1_89 vdd _2435_ gnd cos_alpha[1_bF$buf0] vertices[5] NAND2X1
XNAND2X1_90 vdd _2436_ gnd cos_alpha[0_bF$buf0] vertices[6] NAND2X1
XNOR2X1_58 vdd _2436_ gnd _2437_ _2435_ NOR2X1
XAOI22X1_6 gnd vdd cos_alpha[1_bF$buf3] vertices[5] _2438_ cos_alpha[0_bF$buf3] vertices[6] AOI22X1
XOAI21X1_72 gnd vdd _2438_ _2437_ _2439_ _2434_ OAI21X1
XINVX1_100 _2434_ _2440_ vdd gnd INVX1
XAND2X2_24 vdd gnd cos_alpha[1_bF$buf2] vertices[6] _2441_ AND2X2
XNAND2X1_91 vdd _2442_ gnd _2290_ _2441_ NAND2X1
XINVX1_101 _2438_ _2443_ vdd gnd INVX1
XNAND3X1_41 _2443_ vdd gnd _2440_ _2442_ _2444_ NAND3X1
XNAND3X1_42 _2444_ vdd gnd _2433_ _2439_ _2445_ NAND3X1
XINVX1_102 _2300_ _2446_ vdd gnd INVX1
XINVX1_103 _2435_ _2447_ vdd gnd INVX1
XAOI22X1_7 gnd vdd _2304_ _2293_ _2448_ _2446_ _2447_ AOI22X1
XAOI22X1_8 gnd vdd _2443_ _2442_ _2449_ cos_alpha[2_bF$buf1] vertices[4] AOI22X1
XNAND3X1_43 vertices[6] vdd gnd cos_alpha[0_bF$buf2] _2435_ _2450_ NAND3X1
XNAND3X1_44 vertices[5] vdd gnd cos_alpha[1_bF$buf1] _2436_ _2451_ NAND3X1
XAOI21X1_22 gnd vdd _2450_ _2451_ _2452_ _2434_ AOI21X1
XOAI21X1_73 gnd vdd _2452_ _2449_ _2453_ _2448_ OAI21X1
XAOI22X1_9 gnd vdd _2445_ _2453_ _2454_ _2428_ _2431_ AOI22X1
XNAND2X1_92 vdd _2455_ gnd _2428_ _2431_ NAND2X1
XOAI21X1_74 gnd vdd _2452_ _2449_ _2456_ _2433_ OAI21X1
XNAND3X1_45 _2444_ vdd gnd _2448_ _2439_ _2457_ NAND3X1
XAOI21X1_23 gnd vdd _2456_ _2457_ _2458_ _2455_ AOI21X1
XNOR3X1_3 vdd gnd _2458_ _2421_ _2454_ _2459_ NOR3X1
XOAI21X1_75 gnd vdd _2288_ _2306_ _2460_ _2311_ OAI21X1
XNAND3X1_46 _2457_ vdd gnd _2455_ _2456_ _2461_ NAND3X1
XNAND3X1_47 _2427_ vdd gnd _2422_ _2426_ _2462_ NAND3X1
XNAND3X1_48 _2429_ vdd gnd _2423_ _2430_ _2463_ NAND3X1
XNAND2X1_93 vdd _2464_ gnd _2462_ _2463_ NAND2X1
XNAND3X1_49 _2445_ vdd gnd _2464_ _2453_ _2465_ NAND3X1
XAOI21X1_24 gnd vdd _2461_ _2465_ _2466_ _2460_ AOI21X1
XOAI21X1_76 gnd vdd _2466_ _2459_ _2467_ _2420_ OAI21X1
XNOR2X1_59 vdd _2418_ gnd _2468_ _2419_ NOR2X1
XNAND3X1_50 _2465_ vdd gnd _2461_ _2460_ _2469_ NAND3X1
XOAI21X1_77 gnd vdd _2454_ _2458_ _2470_ _2421_ OAI21X1
XNAND3X1_51 _2469_ vdd gnd _2468_ _2470_ _2471_ NAND3X1
XNAND3X1_52 _2413_ vdd gnd _2471_ _2467_ _2472_ NAND3X1
XINVX1_104 _2314_ _2473_ vdd gnd INVX1
XAOI21X1_25 gnd vdd _2321_ _2319_ _2474_ _2473_ AOI21X1
XAOI21X1_26 gnd vdd _2470_ _2469_ _2475_ _2468_ AOI21X1
XINVX1_105 _2471_ _2476_ vdd gnd INVX1
XOAI21X1_78 gnd vdd _2475_ _2476_ _2477_ _2474_ OAI21X1
XNAND3X1_53 _2411_ vdd gnd _2472_ _2477_ _2478_ NAND3X1
XNAND3X1_54 _2199_ vdd gnd _2195_ _2023_ _2479_ NAND3X1
XAOI21X1_27 gnd vdd _2324_ _2320_ _2480_ _2479_ AOI21X1
XOAI21X1_79 gnd vdd _2475_ _2476_ _2481_ _2413_ OAI21X1
XNAND3X1_55 _2471_ vdd gnd _2467_ _2474_ _2482_ NAND3X1
XNAND3X1_56 _2480_ vdd gnd _2481_ _2482_ _2483_ NAND3X1
XNAND3X1_57 _2483_ vdd gnd _2478_ _2408_ _2484_ NAND3X1
XNOR2X1_60 vdd _2330_ gnd _2485_ _2204_ NOR2X1
XNAND3X1_58 _2477_ vdd gnd _2472_ _2480_ _2486_ NAND3X1
XNAND3X1_59 _2481_ vdd gnd _2411_ _2482_ _2487_ NAND3X1
XNAND3X1_60 _2487_ vdd gnd _2486_ _2485_ _2488_ NAND3X1
XNAND3X1_61 _2484_ vdd gnd cos_gamma[0_bF$buf3] _2488_ _2489_ NAND3X1
XAND2X2_25 vdd gnd _2489_ _2407_ _2490_ AND2X2
XNOR2X1_61 vdd _2489_ gnd _2491_ _2407_ NOR2X1
XOAI21X1_80 gnd vdd _2491_ _2490_ _2492_ _2406_ OAI21X1
XNAND2X1_94 vdd _2493_ gnd _2334_ _2335_ NAND2X1
XOAI21X1_81 gnd vdd _326_ _2493_ _2494_ _2489_ OAI21X1
XOR2X2_11 _2495_ _2407_ vdd gnd _2489_ OR2X2
XNAND3X1_62 _2494_ vdd gnd _2405_ _2495_ _2496_ NAND3X1
XOAI21X1_82 gnd vdd _2343_ _2344_ _2497_ _2345_ OAI21X1
XINVX1_106 dz[6] _2498_ vdd gnd INVX1
XNOR2X1_62 vdd dx[6] gnd _2499_ dy[6] NOR2X1
XNAND2X1_95 vdd _2500_ gnd dy[6] dx[6] NAND2X1
XINVX1_107 _2500_ _2501_ vdd gnd INVX1
XNOR2X1_63 vdd _2501_ gnd _2502_ _2499_ NOR2X1
XXNOR2X1_16 _2502_ _2498_ gnd vdd _2503_ XNOR2X1
XXOR2X1_7 _2504_ vdd _2497_ _2503_ gnd XOR2X1
XNAND3X1_63 _2492_ vdd gnd _2504_ _2496_ _2505_ NAND3X1
XAOI21X1_28 gnd vdd _2496_ _2492_ _2506_ _2504_ AOI21X1
XINVX1_108 _2506_ _2507_ vdd gnd INVX1
XNAND3X1_64 _2507_ vdd gnd _2505_ _2404_ _2508_ NAND3X1
XAND2X2_26 vdd gnd _2350_ _2403_ _2509_ AND2X2
XINVX1_109 _2505_ _2510_ vdd gnd INVX1
XOAI21X1_83 gnd vdd _2510_ _2506_ _2511_ _2509_ OAI21X1
XNAND3X1_65 _2508_ vdd gnd _2402_ _2511_ _2512_ NAND3X1
XINVX1_110 _2402_ _2513_ vdd gnd INVX1
XNAND2X1_96 vdd _2514_ gnd _2508_ _2511_ NAND2X1
XNAND2X1_97 vdd _2515_ gnd _2513_ _2514_ NAND2X1
XNAND3X1_66 _2512_ vdd gnd _2385_ _2515_ _2516_ NAND3X1
XINVX1_111 _2516_ _2517_ vdd gnd INVX1
XAOI21X1_29 gnd vdd _2515_ _2512_ _2518_ _2385_ AOI21X1
XNOR2X1_64 vdd _2517_ gnd _2519_ _2518_ NOR2X1
XNAND2X1_98 vdd _2520_ gnd _2384_ _2519_ NAND2X1
XOAI21X1_84 gnd vdd _2518_ _2517_ _2521_ _2383_ OAI21X1
XNAND2X1_99 vdd _2522_ gnd _2521_ _2520_ NAND2X1
XNOR2X1_65 vdd _2522_ gnd _2523_ _2376_ NOR2X1
XAOI21X1_30 gnd vdd _2520_ _2521_ _2524_ _2375_ AOI21X1
XOAI21X1_85 gnd vdd _2524_ _2523_ _2525_ _2366_ OAI21X1
XINVX1_112 _2366_ _2526_ vdd gnd INVX1
XOR2X2_12 _2527_ _2376_ vdd gnd _2522_ OR2X2
XINVX1_113 _2524_ _2528_ vdd gnd INVX1
XNAND3X1_67 _2526_ vdd gnd _2528_ _2527_ _2529_ NAND3X1
XNAND2X1_100 vdd _2530_ gnd _2525_ _2529_ NAND2X1
XOAI21X1_86 gnd vdd _2242_ _2370_ _2531_ _2372_ OAI21X1