* NGSPICE file created from CompBlock.ext - technology: scmos

* Black-box entry subcircuit for FILL abstract view
.subckt FILL gnd vdd
.ends

* Black-box entry subcircuit for OAI21X1 abstract view
.subckt OAI21X1 A B C gnd Y vdd
.ends

* Black-box entry subcircuit for AND2X2 abstract view
.subckt AND2X2 A B gnd Y vdd
.ends

* Black-box entry subcircuit for INVX1 abstract view
.subckt INVX1 A gnd Y vdd
.ends

* Black-box entry subcircuit for NAND2X1 abstract view
.subckt NAND2X1 A B gnd Y vdd
.ends

* Black-box entry subcircuit for AOI21X1 abstract view
.subckt AOI21X1 A B C gnd Y vdd
.ends

* Black-box entry subcircuit for AOI22X1 abstract view
.subckt AOI22X1 A B C D gnd Y vdd
.ends

* Black-box entry subcircuit for NAND3X1 abstract view
.subckt NAND3X1 A B C gnd Y vdd
.ends

* Black-box entry subcircuit for OAI22X1 abstract view
.subckt OAI22X1 A B C D gnd Y vdd
.ends

* Black-box entry subcircuit for OR2X2 abstract view
.subckt OR2X2 A B gnd Y vdd
.ends

* Black-box entry subcircuit for XNOR2X1 abstract view
.subckt XNOR2X1 A B gnd Y vdd
.ends

* Black-box entry subcircuit for XOR2X1 abstract view
.subckt XOR2X1 A B gnd Y vdd
.ends

* Black-box entry subcircuit for NOR3X1 abstract view
.subckt NOR3X1 A B C gnd Y vdd
.ends

* Black-box entry subcircuit for NOR2X1 abstract view
.subckt NOR2X1 A B gnd Y vdd
.ends

* Black-box entry subcircuit for BUFX2 abstract view
.subckt BUFX2 A gnd Y vdd
.ends

* Black-box entry subcircuit for DFFPOSX1 abstract view
.subckt DFFPOSX1 Q CLK D gnd vdd
.ends

.subckt CompBlock vdd gnd clk vertices[0] vertices[1] vertices[2] vertices[3] vertices[4]
+ vertices[5] vertices[6] vertices[7] vertices[8] vertices[9] vertices[10] vertices[11]
+ vertices[12] vertices[13] vertices[14] vertices[15] cos_alpha[0] cos_alpha[1] cos_alpha[2]
+ cos_alpha[3] cos_alpha[4] cos_alpha[5] cos_alpha[6] cos_alpha[7] cos_alpha[8] cos_alpha[9]
+ cos_alpha[10] cos_alpha[11] cos_alpha[12] cos_alpha[13] cos_alpha[14] cos_alpha[15]
+ sin_alpha[0] sin_alpha[1] sin_alpha[2] sin_alpha[3] sin_alpha[4] sin_alpha[5] sin_alpha[6]
+ sin_alpha[7] sin_alpha[8] sin_alpha[9] sin_alpha[10] sin_alpha[11] sin_alpha[12]
+ sin_alpha[13] sin_alpha[14] sin_alpha[15] cos_beta[0] cos_beta[1] cos_beta[2] cos_beta[3]
+ cos_beta[4] cos_beta[5] cos_beta[6] cos_beta[7] cos_beta[8] cos_beta[9] cos_beta[10]
+ cos_beta[11] cos_beta[12] cos_beta[13] cos_beta[14] cos_beta[15] sin_beta[0] sin_beta[1]
+ sin_beta[2] sin_beta[3] sin_beta[4] sin_beta[5] sin_beta[6] sin_beta[7] sin_beta[8]
+ sin_beta[9] sin_beta[10] sin_beta[11] sin_beta[12] sin_beta[13] sin_beta[14] sin_beta[15]
+ cos_gamma[0] cos_gamma[1] cos_gamma[2] cos_gamma[3] cos_gamma[4] cos_gamma[5] cos_gamma[6]
+ cos_gamma[7] cos_gamma[8] cos_gamma[9] cos_gamma[10] cos_gamma[11] cos_gamma[12]
+ cos_gamma[13] cos_gamma[14] cos_gamma[15] sin_gamma[0] sin_gamma[1] sin_gamma[2]
+ sin_gamma[3] sin_gamma[4] sin_gamma[5] sin_gamma[6] sin_gamma[7] sin_gamma[8] sin_gamma[9]
+ sin_gamma[10] sin_gamma[11] sin_gamma[12] sin_gamma[13] sin_gamma[14] sin_gamma[15]
+ dx[0] dx[1] dx[2] dx[3] dx[4] dx[5] dx[6] dx[7] dx[8] dx[9] dx[10] dx[11] dx[12]
+ dx[13] dx[14] dx[15] dy[0] dy[1] dy[2] dy[3] dy[4] dy[5] dy[6] dy[7] dy[8] dy[9]
+ dy[10] dy[11] dy[12] dy[13] dy[14] dy[15] dz[0] dz[1] dz[2] dz[3] dz[4] dz[5] dz[6]
+ dz[7] dz[8] dz[9] dz[10] dz[11] dz[12] dz[13] dz[14] dz[15] vertices_out[0] vertices_out[1]
+ vertices_out[2] vertices_out[3] vertices_out[4] vertices_out[5] vertices_out[6]
+ vertices_out[7] vertices_out[8] vertices_out[9] vertices_out[10] vertices_out[11]
+ vertices_out[12] vertices_out[13] vertices_out[14] vertices_out[15]
XFILL_22_0_2 gnd vdd FILL
XFILL_5_1_2 gnd vdd FILL
XOAI21X1_382 OR2X2_48/B OR2X2_48/A OAI21X1_382/C gnd INVX1_311/A vdd OAI21X1
XOAI21X1_360 OAI21X1_361/A OAI21X1_361/B INVX1_271/Y gnd OAI21X1_360/Y vdd OAI21X1
XOAI21X1_371 INVX1_226/Y INVX1_18/Y INVX1_304/Y gnd AND2X2_86/A vdd OAI21X1
XAND2X2_5 AND2X2_5/A AND2X2_7/A gnd AND2X2_5/Y vdd AND2X2
XFILL_13_0_2 gnd vdd FILL
XOAI21X1_393 AND2X2_75/Y INVX1_285/Y INVX1_286/Y gnd INVX1_316/A vdd OAI21X1
XINVX1_232 INVX1_232/A gnd INVX1_232/Y vdd INVX1
XINVX1_243 INVX1_243/A gnd INVX1_243/Y vdd INVX1
XINVX1_210 vertices[10] gnd OAI22X1_9/D vdd INVX1
XINVX1_221 INVX1_221/A gnd INVX1_221/Y vdd INVX1
XOAI21X1_190 AOI21X1_87/Y AOI21X1_88/Y AOI22X1_24/Y gnd AOI21X1_90/A vdd OAI21X1
XINVX1_276 INVX1_276/A gnd INVX1_276/Y vdd INVX1
XINVX1_287 NOR3X1_27/A gnd INVX1_287/Y vdd INVX1
XINVX1_298 cos_gamma[13] gnd INVX1_298/Y vdd INVX1
XINVX1_265 INVX1_265/A gnd INVX1_265/Y vdd INVX1
XNAND2X1_43 INVX1_49/A NAND2X1_43/B gnd NAND3X1_6/C vdd NAND2X1
XNAND2X1_10 BUFX2_3/Y vertices[2] gnd OR2X2_3/B vdd NAND2X1
XNAND2X1_21 cos_gamma[3] INVX1_9/A gnd NOR2X1_43/A vdd NAND2X1
XNAND2X1_32 cos_gamma[3] INVX1_27/Y gnd OAI21X1_36/A vdd NAND2X1
XINVX1_254 INVX1_254/A gnd INVX1_254/Y vdd INVX1
XNAND2X1_98 INVX1_93/Y NOR2X1_64/Y gnd NAND2X1_99/B vdd NAND2X1
XNAND2X1_76 INVX1_87/Y NAND2X1_76/B gnd AOI22X1_4/A vdd NAND2X1
XNAND2X1_87 AND2X2_22/Y AND2X2_23/Y gnd NAND3X1_47/C vdd NAND2X1
XNAND2X1_65 INVX1_15/A vertices[3] gnd INVX1_74/A vdd NAND2X1
XNAND2X1_54 cos_gamma[4] INVX1_18/A gnd OR2X2_13/B vdd NAND2X1
XAOI21X1_247 NAND3X1_516/C OAI21X1_490/Y INVX1_376/A gnd OAI21X1_495/B vdd AOI21X1
XAOI21X1_236 OAI21X1_466/Y NAND3X1_497/A NAND3X1_498/A gnd OAI21X1_511/A vdd AOI21X1
XAOI21X1_258 INVX1_363/A NAND3X1_492/B OAI21X1_467/A gnd NOR3X1_48/B vdd AOI21X1
XAOI21X1_225 NAND3X1_475/Y NAND3X1_476/Y INVX1_357/A gnd OAI21X1_457/B vdd AOI21X1
XAOI21X1_214 OAI21X1_415/Y NAND3X1_450/B INVX1_329/A gnd NOR3X1_43/C vdd AOI21X1
XAOI21X1_203 OAI21X1_398/Y NAND3X1_414/B INVX1_321/Y gnd NOR3X1_38/B vdd AOI21X1
XAOI22X1_41 AOI22X1_41/A AOI22X1_41/B AND2X2_78/Y AOI22X1_41/D gnd AOI22X1_41/Y vdd
+ AOI22X1
XAOI22X1_30 AOI22X1_30/A OR2X2_17/Y AOI22X1_30/C AOI22X1_30/D gnd AOI22X1_30/Y vdd
+ AOI22X1
XAOI22X1_52 INVX1_263/A INVX1_262/Y AND2X2_96/B AOI22X1_52/D gnd NOR3X1_43/B vdd AOI22X1
XNAND3X1_229 OAI21X1_230/Y NAND3X1_232/A INVX1_211/Y gnd OAI21X1_276/C vdd NAND3X1
XNAND3X1_218 NOR2X1_84/Y AND2X2_57/B OAI21X1_203/Y gnd INVX1_192/A vdd NAND3X1
XNAND3X1_207 INVX1_184/Y AND2X2_48/B AOI21X1_99/B gnd AND2X2_48/A vdd NAND3X1
XOAI22X1_3 INVX1_8/Y INVX1_43/Y INVX1_7/Y OAI22X1_8/B gnd OAI22X1_3/Y vdd OAI22X1
XNAND2X1_409 NAND3X1_423/Y NAND3X1_426/Y gnd INVX1_323/A vdd NAND2X1
XFILL_20_1_0 gnd vdd FILL
XAND2X2_110 OR2X2_55/Y AOI22X1_59/B gnd NOR3X1_51/A vdd AND2X2
XFILL_28_2_0 gnd vdd FILL
XFILL_3_2_0 gnd vdd FILL
XOAI21X1_19 INVX1_19/Y NOR2X1_20/A INVX1_20/A gnd XNOR2X1_8/B vdd OAI21X1
XFILL_11_1_0 gnd vdd FILL
XFILL_19_2_0 gnd vdd FILL
XNAND2X1_228 XOR2X1_13/Y INVX1_206/Y gnd NAND3X1_234/C vdd NAND2X1
XNAND2X1_217 NAND2X1_217/A NAND3X1_210/B gnd INVX1_221/A vdd NAND2X1
XNAND2X1_206 AND2X2_59/A OR2X2_25/Y gnd NAND3X1_267/A vdd NAND2X1
XNAND2X1_239 AOI22X1_32/A AOI22X1_32/B gnd OAI21X1_242/C vdd NAND2X1
XOR2X2_55 OR2X2_55/A OR2X2_55/B gnd OR2X2_55/Y vdd OR2X2
XOR2X2_33 OR2X2_33/A OR2X2_33/B gnd OR2X2_33/Y vdd OR2X2
XNAND3X1_390 INVX1_258/Y AND2X2_95/B OAI21X1_364/Y gnd AND2X2_95/A vdd NAND3X1
XOR2X2_44 OR2X2_44/A OR2X2_44/B gnd OR2X2_44/Y vdd OR2X2
XOR2X2_11 OR2X2_11/A OR2X2_11/B gnd OR2X2_11/Y vdd OR2X2
XOR2X2_4 OR2X2_4/A OR2X2_4/B gnd OR2X2_4/Y vdd OR2X2
XOR2X2_22 OR2X2_22/A OR2X2_22/B gnd OR2X2_22/Y vdd OR2X2
XXNOR2X1_6 XNOR2X1_6/A XNOR2X1_6/B gnd OR2X2_5/A vdd XNOR2X1
XFILL_25_0_0 gnd vdd FILL
XFILL_0_0_0 gnd vdd FILL
XINVX1_6 INVX1_6/A gnd INVX1_6/Y vdd INVX1
XFILL_8_1_0 gnd vdd FILL
XFILL_16_0_0 gnd vdd FILL
XOAI21X1_383 INVX1_29/Y INVX1_203/Y OAI21X1_486/A gnd OAI21X1_384/C vdd OAI21X1
XOAI21X1_350 OAI21X1_379/B NOR3X1_35/Y INVX1_276/A gnd OAI21X1_350/Y vdd OAI21X1
XOAI21X1_361 OAI21X1_361/A OAI21X1_361/B INVX1_271/A gnd AOI22X1_42/D vdd OAI21X1
XOAI21X1_394 INVX1_73/Y NOR2X1_86/B OR2X2_39/A gnd OAI21X1_394/Y vdd OAI21X1
XOAI21X1_372 NOR2X1_133/A NOR2X1_166/A AND2X2_70/B gnd XNOR2X1_41/B vdd OAI21X1
XAND2X2_6 INVX1_24/Y AND2X2_6/B gnd XOR2X1_4/B vdd AND2X2
XXOR2X1_50 XOR2X1_50/A XOR2X1_50/B gnd XOR2X1_50/Y vdd XOR2X1
XINVX1_277 cos_alpha[12] gnd INVX1_277/Y vdd INVX1
XINVX1_244 INVX1_244/A gnd INVX1_244/Y vdd INVX1
XINVX1_266 INVX1_266/A gnd INVX1_266/Y vdd INVX1
XINVX1_211 INVX1_211/A gnd INVX1_211/Y vdd INVX1
XAOI22X1_1 INVX1_42/A OAI22X1_3/Y INVX1_67/Y INVX1_68/Y gnd OR2X2_8/A vdd AOI22X1
XINVX1_255 INVX1_255/A gnd INVX1_255/Y vdd INVX1
XOAI21X1_191 AOI21X1_91/Y AOI21X1_90/Y AOI21X1_89/Y gnd AOI21X1_92/A vdd OAI21X1
XINVX1_200 INVX1_200/A gnd INVX1_200/Y vdd INVX1
XINVX1_222 INVX1_222/A gnd INVX1_222/Y vdd INVX1
XINVX1_233 INVX1_233/A gnd INVX1_233/Y vdd INVX1
XOAI21X1_180 INVX1_45/Y NOR2X1_86/B OR2X2_22/A gnd OAI21X1_180/Y vdd OAI21X1
XINVX1_288 NOR3X1_27/B gnd INVX1_288/Y vdd INVX1
XINVX1_299 INVX1_299/A gnd INVX1_299/Y vdd INVX1
XNAND2X1_44 NAND3X1_8/B NAND3X1_8/A gnd NAND2X1_45/B vdd NAND2X1
XNAND2X1_33 NOR2X1_34/A NOR2X1_34/B gnd NAND2X1_34/A vdd NAND2X1
XNAND2X1_55 OAI21X1_37/Y OAI21X1_62/C gnd OR2X2_8/B vdd NAND2X1
XNAND2X1_22 cos_gamma[2] INVX1_27/Y gnd XNOR2X1_6/B vdd NAND2X1
XNAND2X1_66 BUFX2_2/Y vertices[4] gnd INVX1_102/A vdd NAND2X1
XNAND2X1_11 BUFX2_16/Y vertices[2] gnd OAI21X1_7/B vdd NAND2X1
XNAND2X1_77 cos_gamma[6] INVX1_9/A gnd NOR2X1_82/A vdd NAND2X1
XFILL_28_1 gnd vdd FILL
XNAND2X1_99 OAI21X1_84/Y NAND2X1_99/B gnd OR2X2_12/A vdd NAND2X1
XNAND2X1_88 BUFX2_11/Y vertices[4] gnd INVX1_100/A vdd NAND2X1
XAOI21X1_259 NAND3X1_538/C INVX1_380/Y INVX1_381/Y gnd OAI21X1_509/A vdd AOI21X1
XAOI22X1_53 AOI22X1_53/A AOI22X1_53/B AOI22X1_53/C AOI22X1_53/D gnd NOR3X1_44/B vdd
+ AOI22X1
XAOI21X1_237 NAND3X1_497/Y NAND3X1_498/Y OAI21X1_511/B gnd OAI21X1_471/A vdd AOI21X1
XAOI21X1_248 NAND3X1_468/C NAND3X1_468/B INVX1_354/A gnd OAI21X1_497/A vdd AOI21X1
XAOI21X1_215 AOI21X1_215/A OAI21X1_417/Y NOR3X1_43/Y gnd AOI22X1_56/D vdd AOI21X1
XAOI21X1_226 NAND3X1_426/B NAND3X1_426/C NAND3X1_423/A gnd AOI21X1_227/C vdd AOI21X1
XAOI21X1_204 AND2X2_74/Y OAI21X1_344/Y NOR3X1_31/C gnd NOR3X1_39/A vdd AOI21X1
XAOI22X1_42 AND2X2_84/A AND2X2_81/B AND2X2_93/B AOI22X1_42/D gnd AOI22X1_42/Y vdd
+ AOI22X1
XAOI22X1_20 AOI22X1_20/A AOI22X1_20/B AOI22X1_20/C AOI22X1_20/D gnd AOI22X1_20/Y vdd
+ AOI22X1
XAOI22X1_31 AOI22X1_31/A AOI22X1_31/B INVX1_217/Y AOI22X1_31/D gnd INVX1_237/A vdd
+ AOI22X1
XNAND3X1_219 INVX1_191/A INVX1_192/A OAI21X1_204/Y gnd NAND3X1_275/A vdd NAND3X1
XNAND3X1_208 XOR2X1_11/Y AND2X2_48/A NAND3X1_208/C gnd NAND3X1_210/B vdd NAND3X1
XOAI22X1_4 INVX1_16/Y INVX1_46/Y INVX1_29/Y INVX1_28/Y gnd OAI22X1_4/Y vdd OAI22X1
XFILL_20_1_1 gnd vdd FILL
XAND2X2_100 AND2X2_100/A AND2X2_100/B gnd AND2X2_100/Y vdd AND2X2
XFILL_28_2_1 gnd vdd FILL
XFILL_3_2_1 gnd vdd FILL
XFILL_11_1_1 gnd vdd FILL
XFILL_19_2_1 gnd vdd FILL
XNAND2X1_229 NAND3X1_226/Y NAND3X1_227/Y gnd NAND3X1_237/C vdd NAND2X1
XNAND2X1_207 AND2X2_53/B AND2X2_53/A gnd OAI21X1_247/C vdd NAND2X1
XNAND2X1_218 cos_gamma[2] NAND3X1_457/B gnd INVX1_217/A vdd NAND2X1
XNAND3X1_391 NAND3X1_391/A AND2X2_94/A INVX1_296/Y gnd NAND3X1_395/B vdd NAND3X1
XNAND3X1_380 NAND3X1_380/A AND2X2_92/B NAND3X1_380/C gnd AND2X2_92/A vdd NAND3X1
XFILL_10_1 gnd vdd FILL
XOR2X2_34 OR2X2_34/A OR2X2_34/B gnd OR2X2_34/Y vdd OR2X2
XOR2X2_45 OR2X2_45/A OR2X2_45/B gnd OR2X2_45/Y vdd OR2X2
XOR2X2_56 OR2X2_56/A OR2X2_56/B gnd OR2X2_56/Y vdd OR2X2
XOR2X2_23 OR2X2_23/A OR2X2_23/B gnd OR2X2_23/Y vdd OR2X2
XOR2X2_12 OR2X2_12/A OR2X2_12/B gnd OR2X2_12/Y vdd OR2X2
XOR2X2_5 OR2X2_5/A OR2X2_5/B gnd OR2X2_5/Y vdd OR2X2
XXNOR2X1_7 XNOR2X1_7/A INVX1_32/Y gnd XNOR2X1_8/A vdd XNOR2X1
XFILL_25_0_1 gnd vdd FILL
XFILL_0_0_1 gnd vdd FILL
XOAI21X1_510 NOR3X1_48/A NOR3X1_48/C NOR3X1_48/B gnd OAI21X1_510/Y vdd OAI21X1
XINVX1_7 INVX1_7/A gnd INVX1_7/Y vdd INVX1
XFILL_8_1_1 gnd vdd FILL
XFILL_16_0_1 gnd vdd FILL
XOAI21X1_384 XOR2X1_23/B OAI21X1_437/C OAI21X1_384/C gnd OR2X2_38/A vdd OAI21X1
XOAI21X1_395 NOR3X1_27/A NOR3X1_27/B OAI21X1_395/C gnd OAI21X1_395/Y vdd OAI21X1
XOAI21X1_362 AOI22X1_42/Y OAI21X1_363/B OAI21X1_362/C gnd AOI22X1_43/D vdd OAI21X1
XOAI21X1_351 OAI21X1_351/A NOR3X1_34/Y INVX1_291/A gnd AND2X2_79/A vdd OAI21X1
XOAI21X1_340 INVX1_244/A NOR2X1_126/Y OAI21X1_340/C gnd OAI21X1_340/Y vdd OAI21X1
XOAI21X1_373 NOR2X1_83/A INVX1_124/Y NOR2X1_169/A gnd OAI21X1_374/C vdd OAI21X1
XAND2X2_7 AND2X2_7/A OR2X2_3/Y gnd AND2X2_8/B vdd AND2X2
XNAND2X1_390 OAI21X1_385/Y OR2X2_38/Y gnd OAI21X1_432/B vdd NAND2X1
XXOR2X1_40 XOR2X1_40/A XOR2X1_40/B gnd XOR2X1_40/Y vdd XOR2X1
XXOR2X1_51 XOR2X1_51/A XOR2X1_51/B gnd OR2X2_59/A vdd XOR2X1
XAOI22X1_2 INVX1_52/Y AOI22X1_2/B INVX1_51/Y NAND3X1_4/B gnd NOR3X1_1/A vdd AOI22X1
XINVX1_278 INVX1_278/A gnd INVX1_278/Y vdd INVX1
XINVX1_267 INVX1_267/A gnd INVX1_267/Y vdd INVX1
XINVX1_289 INVX1_289/A gnd INVX1_289/Y vdd INVX1
XINVX1_245 vertices[11] gnd OAI22X1_9/B vdd INVX1
XINVX1_234 INVX1_234/A gnd INVX1_234/Y vdd INVX1
XOAI21X1_170 OR2X2_16/B OR2X2_16/A OR2X2_18/Y gnd INVX1_172/A vdd OAI21X1
XINVX1_223 INVX1_223/A gnd INVX1_223/Y vdd INVX1
XOAI21X1_192 AOI21X1_91/Y AOI21X1_90/Y OAI21X1_192/C gnd AOI21X1_93/A vdd OAI21X1
XINVX1_201 INVX1_201/A gnd INVX1_201/Y vdd INVX1
XINVX1_256 INVX1_256/A gnd INVX1_256/Y vdd INVX1
XINVX1_212 INVX1_212/A gnd INVX1_212/Y vdd INVX1
XOAI21X1_181 NOR2X1_96/Y AND2X2_42/Y INVX1_176/A gnd OAI21X1_181/Y vdd OAI21X1
XNAND2X1_67 OAI21X1_48/Y NAND3X1_18/Y gnd NAND3X1_20/B vdd NAND2X1
XNAND2X1_78 OAI21X1_60/Y INVX1_92/Y gnd INVX1_93/A vdd NAND2X1
XNAND2X1_45 AOI21X1_5/Y NAND2X1_45/B gnd NOR2X1_60/A vdd NAND2X1
XNAND2X1_34 NAND2X1_34/A INVX1_38/Y gnd INVX1_39/A vdd NAND2X1
XNAND2X1_23 cos_gamma[1] INVX1_18/A gnd XNOR2X1_5/B vdd NAND2X1
XNAND2X1_56 OR2X2_8/B OR2X2_8/A gnd NAND3X1_14/B vdd NAND2X1
XNAND2X1_12 NOR2X1_17/A AND2X2_5/Y gnd INVX1_17/A vdd NAND2X1
XNAND2X1_89 BUFX2_17/Y vertices[5] gnd NOR2X1_58/A vdd NAND2X1
XFILL_28_2 gnd vdd FILL
XAOI21X1_205 OAI21X1_400/Y OAI21X1_441/C AND2X2_91/Y gnd NOR3X1_39/B vdd AOI21X1
XAOI21X1_216 INVX1_307/A NAND3X1_436/C NOR2X1_170/Y gnd OR2X2_47/A vdd AOI21X1
XAOI21X1_238 NAND3X1_494/B AOI22X1_60/A XNOR2X1_46/Y gnd OAI21X1_471/B vdd AOI21X1
XAOI21X1_249 INVX1_356/Y OAI21X1_452/Y NOR3X1_44/Y gnd NAND3X1_523/A vdd AOI21X1
XAOI22X1_54 AOI22X1_55/A AOI22X1_55/B AOI22X1_54/C AOI22X1_54/D gnd AOI22X1_54/Y vdd
+ AOI22X1
XAOI21X1_227 INVX1_323/A INVX1_359/Y AOI21X1_227/C gnd OAI21X1_458/C vdd AOI21X1
XAOI22X1_43 INVX1_329/A AOI22X1_43/B AND2X2_94/B AOI22X1_43/D gnd AOI22X1_43/Y vdd
+ AOI22X1
XAOI22X1_21 cos_gamma[2] NOR2X1_73/Y AOI22X1_21/C AOI22X1_21/D gnd NOR3X1_15/B vdd
+ AOI22X1
XAOI22X1_32 AOI22X1_32/A AOI22X1_32/B AOI22X1_32/C AOI22X1_32/D gnd AOI22X1_32/Y vdd
+ AOI22X1
XAOI22X1_10 vertices[0] cos_alpha[7] vertices[1] cos_alpha[6] gnd NOR2X1_75/A vdd
+ AOI22X1
XNAND3X1_209 INVX1_188/A NAND3X1_210/B OAI21X1_198/Y gnd AND2X2_53/B vdd NAND3X1
XOAI22X1_5 OAI22X1_5/A OAI22X1_5/B XOR2X1_9/B XOR2X1_9/A gnd OAI22X1_5/Y vdd OAI22X1
XFILL_20_1_2 gnd vdd FILL
XAND2X2_101 AOI22X1_53/B AOI22X1_53/A gnd AND2X2_101/Y vdd AND2X2
XFILL_28_2_2 gnd vdd FILL
XFILL_3_2_2 gnd vdd FILL
XFILL_11_1_2 gnd vdd FILL
XFILL_19_2_2 gnd vdd FILL
XNAND3X1_540 AOI22X1_59/C INVX1_382/Y AOI22X1_59/D gnd NAND3X1_541/B vdd NAND3X1
XNAND2X1_219 vertices[1] cos_alpha[9] gnd NOR2X1_140/A vdd NAND2X1
XNAND2X1_208 cos_gamma[3] NAND2X1_536/B gnd OAI21X1_263/A vdd NAND2X1
XNAND3X1_392 OR2X2_27/Y NAND3X1_395/B OAI21X1_365/Y gnd NAND3X1_393/C vdd NAND3X1
XNAND3X1_381 INVX1_271/A NAND3X1_383/A AND2X2_92/A gnd NAND3X1_382/A vdd NAND3X1
XNAND3X1_370 INVX1_273/A AND2X2_89/B OAI21X1_356/Y gnd AND2X2_89/A vdd NAND3X1
XOR2X2_35 OR2X2_41/A OR2X2_35/B gnd OR2X2_35/Y vdd OR2X2
XOR2X2_57 OR2X2_57/A OR2X2_57/B gnd OR2X2_57/Y vdd OR2X2
XOR2X2_46 OR2X2_46/A OR2X2_46/B gnd OR2X2_46/Y vdd OR2X2
XOR2X2_24 OR2X2_24/A OR2X2_24/B gnd OR2X2_24/Y vdd OR2X2
XXNOR2X1_8 XNOR2X1_8/A XNOR2X1_8/B gnd OR2X2_5/B vdd XNOR2X1
XOR2X2_6 OR2X2_6/A OR2X2_6/B gnd OR2X2_6/Y vdd OR2X2
XOR2X2_13 OR2X2_13/A OR2X2_13/B gnd OR2X2_13/Y vdd OR2X2
XFILL_25_0_2 gnd vdd FILL
XFILL_0_0_2 gnd vdd FILL
XOAI21X1_511 OAI21X1_511/A OAI21X1_511/B AOI22X1_60/A gnd OAI21X1_511/Y vdd OAI21X1
XINVX1_8 cos_gamma[1] gnd INVX1_8/Y vdd INVX1
XOAI21X1_500 INVX1_65/Y NOR2X1_197/B OAI21X1_500/C gnd OAI21X1_500/Y vdd OAI21X1
XFILL_8_1_2 gnd vdd FILL
XFILL_16_0_2 gnd vdd FILL
XFILL_9_1 gnd vdd FILL
XOAI21X1_330 INVX1_279/A INVX1_280/Y OAI21X1_330/C gnd OAI21X1_330/Y vdd OAI21X1
XOAI21X1_341 NOR3X1_27/B NOR3X1_27/C NOR3X1_27/A gnd OAI21X1_341/Y vdd OAI21X1
XOAI21X1_385 INVX1_16/Y INVX1_241/Y OR2X2_38/A gnd OAI21X1_385/Y vdd OAI21X1
XOAI21X1_363 AOI22X1_42/Y OAI21X1_363/B OAI21X1_363/C gnd OAI21X1_363/Y vdd OAI21X1
XOAI21X1_352 NOR3X1_34/B NOR3X1_34/C NOR3X1_34/A gnd OAI21X1_352/Y vdd OAI21X1
XOAI21X1_396 AND2X2_90/Y NOR2X1_160/Y INVX1_318/Y gnd OAI21X1_396/Y vdd OAI21X1
XOAI21X1_374 NOR2X1_166/A NOR2X1_166/B OAI21X1_374/C gnd XNOR2X1_40/A vdd OAI21X1
XAND2X2_8 AND2X2_8/A AND2X2_8/B gnd AND2X2_8/Y vdd AND2X2
XNAND2X1_391 INVX1_312/A OAI21X1_432/B gnd NAND3X1_402/C vdd NAND2X1
XXOR2X1_52 XOR2X1_52/A XOR2X1_52/B gnd XOR2X1_52/Y vdd XOR2X1
XXOR2X1_30 XOR2X1_30/A XOR2X1_30/B gnd XOR2X1_30/Y vdd XOR2X1
XNAND2X1_380 XOR2X1_24/B XOR2X1_24/A gnd NAND2X1_381/A vdd NAND2X1
XXOR2X1_41 XOR2X1_41/A XOR2X1_41/B gnd XOR2X1_41/Y vdd XOR2X1
XOAI21X1_160 AOI22X1_22/Y AOI21X1_76/Y INVX1_163/Y gnd AOI21X1_77/A vdd OAI21X1
XAOI22X1_3 BUFX2_13/Y vertices[3] AOI22X1_7/D AOI22X1_3/D gnd NOR3X1_1/B vdd AOI22X1
XOAI21X1_171 INVX1_36/Y OAI22X1_8/D OR2X2_19/A gnd OAI21X1_171/Y vdd OAI21X1
XOAI21X1_182 NOR2X1_96/Y AND2X2_42/Y INVX1_176/Y gnd OAI21X1_182/Y vdd OAI21X1
XINVX1_279 INVX1_279/A gnd INVX1_279/Y vdd INVX1
XINVX1_268 INVX1_268/A gnd INVX1_268/Y vdd INVX1
XINVX1_246 INVX1_246/A gnd INVX1_246/Y vdd INVX1
XINVX1_235 INVX1_235/A gnd OR2X2_28/B vdd INVX1
XOAI21X1_193 AOI21X1_92/Y AOI21X1_93/Y OAI21X1_193/C gnd AOI21X1_97/B vdd OAI21X1
XINVX1_224 INVX1_224/A gnd INVX1_224/Y vdd INVX1
XINVX1_257 INVX1_257/A gnd INVX1_257/Y vdd INVX1
XINVX1_213 INVX1_213/A gnd INVX1_213/Y vdd INVX1
XINVX1_202 INVX1_202/A gnd INVX1_202/Y vdd INVX1
XNAND2X1_68 NAND3X1_22/Y NAND3X1_24/Y gnd INVX1_78/A vdd NAND2X1
XNAND2X1_46 NOR2X1_60/A NAND3X1_8/Y gnd OAI22X1_8/B vdd NAND2X1
XNAND2X1_35 XNOR2X1_8/B XNOR2X1_8/A gnd OAI21X1_22/C vdd NAND2X1
XNAND2X1_13 NAND3X1_2/Y OAI21X1_9/Y gnd XOR2X1_1/A vdd NAND2X1
XNAND2X1_57 NAND3X1_14/B OR2X2_8/Y gnd OAI21X1_38/C vdd NAND2X1
XNAND2X1_24 vertices[1] BUFX2_11/Y gnd INVX1_48/A vdd NAND2X1
XNAND2X1_79 cos_gamma[3] INVX1_43/A gnd OR2X2_13/A vdd NAND2X1
XAOI21X1_239 NAND3X1_453/B AND2X2_96/A NAND3X1_453/A gnd OAI21X1_472/A vdd AOI21X1
XAOI21X1_206 OAI21X1_399/Y NAND3X1_416/B OAI21X1_389/Y gnd NOR3X1_40/B vdd AOI21X1
XAOI21X1_217 NAND3X1_440/C AOI22X1_46/D INVX1_340/Y gnd INVX1_341/A vdd AOI21X1
XAOI21X1_228 NAND2X1_411/B NAND3X1_427/Y INVX1_8/Y gnd NAND3X1_484/B vdd AOI21X1
XAOI22X1_44 AOI22X1_44/A AOI22X1_44/B AOI22X1_44/C AOI22X1_44/D gnd NOR2X1_153/A vdd
+ AOI22X1
XAOI22X1_55 AOI22X1_55/A AOI22X1_55/B AOI22X1_55/C AOI22X1_55/D gnd AOI22X1_55/Y vdd
+ AOI22X1
XAOI22X1_33 AND2X2_72/A AOI22X1_33/B INVX1_270/A AOI22X1_33/D gnd AOI22X1_33/Y vdd
+ AOI22X1
XAOI22X1_22 AND2X2_39/A AND2X2_39/B AOI22X1_22/C AOI22X1_22/D gnd AOI22X1_22/Y vdd
+ AOI22X1
XNOR3X1_1 NOR3X1_1/A NOR3X1_1/B NOR3X1_1/C gnd NOR3X1_1/Y vdd NOR3X1
XAOI22X1_11 INVX1_15/A vertices[5] NAND3X1_71/B NAND3X1_71/C gnd NOR3X1_13/B vdd AOI22X1
XFILL_23_1_0 gnd vdd FILL
XOAI22X1_6 INVX1_1/Y OAI22X1_6/B INVX1_10/Y OAI22X1_6/D gnd OAI22X1_6/Y vdd OAI22X1
XFILL_6_2_0 gnd vdd FILL
XFILL_14_1_0 gnd vdd FILL
XAND2X2_102 AND2X2_102/A AOI22X1_48/C gnd AND2X2_102/Y vdd AND2X2
XNAND3X1_541 NOR2X1_200/A NAND3X1_541/B OAI21X1_512/Y gnd NAND3X1_542/A vdd NAND3X1
XNAND3X1_530 NAND3X1_530/A OAI21X1_501/Y INVX1_378/Y gnd NAND3X1_531/B vdd NAND3X1
XNAND2X1_209 cos_gamma[4] NAND2X1_536/B gnd OR2X2_31/B vdd NAND2X1
XFILL_28_0_0 gnd vdd FILL
XFILL_3_0_0 gnd vdd FILL
XFILL_19_0_0 gnd vdd FILL
XNAND3X1_360 OAI21X1_380/C OAI21X1_346/Y INVX1_282/Y gnd NAND3X1_362/C vdd NAND3X1
XNAND3X1_382 NAND3X1_382/A NAND3X1_382/B OAI21X1_360/Y gnd NAND3X1_387/A vdd NAND3X1
XNAND3X1_371 XOR2X1_24/Y AND2X2_89/A NAND3X1_373/C gnd NAND3X1_377/A vdd NAND3X1
XNAND3X1_393 INVX1_297/A AND2X2_95/A NAND3X1_393/C gnd AOI22X1_44/A vdd NAND3X1
XOR2X2_14 OR2X2_14/A OR2X2_14/B gnd OR2X2_14/Y vdd OR2X2
XOR2X2_58 OR2X2_58/A OR2X2_58/B gnd OR2X2_58/Y vdd OR2X2
XOR2X2_47 OR2X2_47/A OR2X2_47/B gnd OR2X2_47/Y vdd OR2X2
XOR2X2_36 OR2X2_36/A OR2X2_36/B gnd OR2X2_36/Y vdd OR2X2
XOR2X2_7 OR2X2_7/A OR2X2_7/B gnd OR2X2_7/Y vdd OR2X2
XXNOR2X1_9 XOR2X1_4/Y XNOR2X1_9/B gnd XNOR2X1_9/Y vdd XNOR2X1
XOR2X2_25 OR2X2_25/A OR2X2_25/B gnd OR2X2_25/Y vdd OR2X2
XOAI21X1_512 NOR3X1_50/A NOR3X1_50/C NOR3X1_50/B gnd OAI21X1_512/Y vdd OAI21X1
XOAI21X1_501 INVX1_22/Y NOR2X1_196/B NOR2X1_198/B gnd OAI21X1_501/Y vdd OAI21X1
XINVX1_9 INVX1_9/A gnd INVX1_9/Y vdd INVX1
XNAND2X1_540 AND2X2_109/B AND2X2_109/A gnd NOR3X1_47/A vdd NAND2X1
XFILL_9_2 gnd vdd FILL
XNAND3X1_190 NAND3X1_190/A OAI21X1_193/C NAND3X1_190/C gnd AOI21X1_96/B vdd NAND3X1
XOAI21X1_342 NOR3X1_29/A NOR3X1_29/C NOR3X1_29/B gnd OAI21X1_342/Y vdd OAI21X1
XOAI21X1_364 AOI22X1_43/Y OAI21X1_365/B INVX1_296/Y gnd OAI21X1_364/Y vdd OAI21X1
XOAI21X1_331 OAI21X1_331/A OAI21X1_331/B OAI21X1_331/C gnd OAI21X1_331/Y vdd OAI21X1
XOAI21X1_353 OAI21X1_353/A AOI22X1_32/Y AND2X2_64/A gnd OAI21X1_458/A vdd OAI21X1
XOAI21X1_320 OR2X2_28/B OR2X2_28/A OR2X2_31/Y gnd INVX1_272/A vdd OAI21X1
XOAI21X1_386 NOR2X1_143/Y OAI21X1_386/B OAI21X1_386/C gnd INVX1_313/A vdd OAI21X1
XOAI21X1_375 XNOR2X1_38/Y OAI21X1_375/B AND2X2_87/A gnd XNOR2X1_42/A vdd OAI21X1
XXOR2X1_20 XOR2X1_20/A XOR2X1_20/B gnd XOR2X1_20/Y vdd XOR2X1
XOAI21X1_397 INVX1_1/Y INVX1_319/Y OR2X2_40/A gnd OAI21X1_397/Y vdd OAI21X1
XAND2X2_9 AND2X2_9/A INVX1_30/Y gnd AND2X2_9/Y vdd AND2X2
XNAND2X1_392 INVX1_312/Y OAI21X1_432/B gnd NAND3X1_403/C vdd NAND2X1
XXOR2X1_31 XOR2X1_31/A XOR2X1_31/B gnd XOR2X1_31/Y vdd XOR2X1
XXOR2X1_42 dy[15] dz[15] gnd XOR2X1_42/Y vdd XOR2X1
XNAND2X1_370 OAI21X1_418/C NAND2X1_370/B gnd OAI21X1_418/B vdd NAND2X1
XNAND2X1_381 NAND2X1_381/A NAND3X1_377/A gnd INVX1_327/A vdd NAND2X1
XINVX1_203 cos_alpha[10] gnd INVX1_203/Y vdd INVX1
XINVX1_214 INVX1_214/A gnd INVX1_214/Y vdd INVX1
XINVX1_225 INVX1_225/A gnd INVX1_225/Y vdd INVX1
XAOI22X1_4 AOI22X1_4/A NOR3X1_12/A INVX1_61/Y NOR2X1_42/Y gnd NOR2X1_52/A vdd AOI22X1
XOAI21X1_161 NOR3X1_16/B NOR3X1_16/C NOR3X1_16/A gnd AOI21X1_78/A vdd OAI21X1
XOAI21X1_150 AOI22X1_18/Y AOI21X1_66/Y AOI21X1_85/C gnd AOI22X1_20/C vdd OAI21X1
XOAI21X1_194 AOI21X1_92/Y AOI21X1_93/Y AOI21X1_94/Y gnd AOI21X1_96/A vdd OAI21X1
XOAI21X1_172 INVX1_65/Y OAI22X1_8/B OAI21X1_172/C gnd AND2X2_40/A vdd OAI21X1
XOAI21X1_183 AOI21X1_86/Y AOI21X1_66/C INVX1_181/A gnd OAI21X1_192/C vdd OAI21X1
XNAND2X1_14 dy[2] dx[2] gnd INVX1_20/A vdd NAND2X1
XINVX1_258 OR2X2_27/Y gnd INVX1_258/Y vdd INVX1
XINVX1_269 INVX1_269/A gnd INVX1_269/Y vdd INVX1
XINVX1_247 INVX1_247/A gnd INVX1_247/Y vdd INVX1
XNAND2X1_25 BUFX2_17/Y vertices[3] gnd AND2X2_18/A vdd NAND2X1
XINVX1_236 INVX1_236/A gnd INVX1_236/Y vdd INVX1
XNAND2X1_69 INVX1_78/A NOR2X1_48/Y gnd NAND2X1_70/B vdd NAND2X1
XNAND2X1_47 cos_gamma[1] AND2X2_13/Y gnd INVX1_68/A vdd NAND2X1
XNAND2X1_58 AND2X2_19/A OAI21X1_38/Y gnd INVX1_69/A vdd NAND2X1
XNAND2X1_36 AND2X2_8/B AND2X2_8/A gnd AOI21X1_2/B vdd NAND2X1
XAOI21X1_229 NAND3X1_485/B NAND3X1_485/C INVX1_348/A gnd OAI21X1_461/A vdd AOI21X1
XAOI21X1_207 INVX1_282/Y OAI21X1_346/Y NOR3X1_33/C gnd NOR3X1_41/A vdd AOI21X1
XAOI21X1_218 NAND3X1_308/Y OAI21X1_296/Y INVX1_36/Y gnd OAI21X1_500/C vdd AOI21X1
XAOI22X1_12 NAND3X1_70/Y OAI21X1_99/Y NAND3X1_78/A NAND3X1_78/C gnd NOR3X1_14/A vdd
+ AOI22X1
XAOI22X1_23 INVX1_152/Y NOR2X1_77/B NOR2X1_87/Y AOI22X1_23/D gnd INVX1_176/A vdd AOI22X1
XAOI22X1_56 AOI22X1_56/A AOI22X1_56/B AOI22X1_56/C AOI22X1_56/D gnd NOR2X1_179/A vdd
+ AOI22X1
XAOI22X1_45 cos_gamma[2] AOI22X1_45/B AOI22X1_45/C AOI22X1_45/D gnd NOR3X1_42/B vdd
+ AOI22X1
XAOI22X1_34 AOI22X1_34/A AOI22X1_34/B AOI22X1_34/C AOI22X1_34/D gnd AOI22X1_34/Y vdd
+ AOI22X1
XNOR3X1_2 NOR3X1_2/A NOR3X1_2/B NOR3X1_2/C gnd NOR3X1_2/Y vdd NOR3X1
XFILL_23_1_1 gnd vdd FILL
XOAI22X1_7 OAI22X1_7/A OAI22X1_7/B OAI22X1_7/C OAI22X1_7/D gnd OAI22X1_7/Y vdd OAI22X1
XFILL_6_2_1 gnd vdd FILL
XFILL_14_1_1 gnd vdd FILL
XAND2X2_103 AND2X2_103/A AOI22X1_50/C gnd AND2X2_103/Y vdd AND2X2
XNAND3X1_520 NAND3X1_522/A OAI21X1_495/Y XNOR2X1_77/Y gnd NAND3X1_521/C vdd NAND3X1
XNAND3X1_542 NAND3X1_542/A OAI21X1_513/Y XNOR2X1_83/Y gnd NAND3X1_543/B vdd NAND3X1
XNAND3X1_531 NAND3X1_531/A NAND3X1_531/B OAI21X1_504/Y gnd NAND3X1_532/B vdd NAND3X1
XFILL_28_0_1 gnd vdd FILL
XFILL_3_0_1 gnd vdd FILL
XFILL_19_0_1 gnd vdd FILL
XNAND3X1_350 INVX1_242/A OAI21X1_330/Y NAND3X1_350/C gnd NAND3X1_350/Y vdd NAND3X1
XOR2X2_48 OR2X2_48/A OR2X2_48/B gnd OR2X2_48/Y vdd OR2X2
XNAND3X1_361 OAI21X1_347/Y NAND3X1_362/C OAI21X1_349/C gnd OAI21X1_379/C vdd NAND3X1
XNAND3X1_383 NAND3X1_383/A AND2X2_92/A INVX1_271/Y gnd AND2X2_93/B vdd NAND3X1
XNAND3X1_394 OR2X2_27/Y AND2X2_95/B OAI21X1_364/Y gnd NAND3X1_396/B vdd NAND3X1
XNAND3X1_372 NAND3X1_378/A NAND3X1_377/A OAI21X1_358/Y gnd AND2X2_92/B vdd NAND3X1
XOR2X2_37 OR2X2_37/A OR2X2_37/B gnd OR2X2_37/Y vdd OR2X2
XOR2X2_26 OR2X2_26/A OR2X2_26/B gnd OR2X2_26/Y vdd OR2X2
XOR2X2_15 OR2X2_15/A OR2X2_15/B gnd OR2X2_15/Y vdd OR2X2
XOR2X2_59 OR2X2_59/A OR2X2_59/B gnd OR2X2_59/Y vdd OR2X2
XOR2X2_8 OR2X2_8/A OR2X2_8/B gnd OR2X2_8/Y vdd OR2X2
XOAI21X1_513 NOR3X1_51/B NOR3X1_51/C NOR3X1_51/A gnd OAI21X1_513/Y vdd OAI21X1
XOAI21X1_502 OAI21X1_504/A NOR2X1_198/Y INVX1_378/Y gnd OAI21X1_502/Y vdd OAI21X1
XNAND2X1_541 AOI22X1_59/B OR2X2_55/Y gnd NOR2X1_200/A vdd NAND2X1
XNAND2X1_530 OAI21X1_297/Y NAND3X1_311/C gnd OAI21X1_499/B vdd NAND2X1
XNAND3X1_191 AND2X2_45/Y AOI21X1_96/B AOI21X1_96/A gnd NAND3X1_194/B vdd NAND3X1
XNAND3X1_180 NAND3X1_180/A NAND3X1_180/B OAI21X1_189/C gnd INVX1_212/A vdd NAND3X1
XOAI21X1_387 OAI21X1_388/A OAI21X1_388/B INVX1_313/Y gnd OAI21X1_387/Y vdd OAI21X1
XOAI21X1_398 NOR3X1_36/A NOR3X1_36/C XOR2X1_30/Y gnd OAI21X1_398/Y vdd OAI21X1
XOAI21X1_365 AOI22X1_43/Y OAI21X1_365/B INVX1_296/A gnd OAI21X1_365/Y vdd OAI21X1
XOAI21X1_343 NOR3X1_28/B NOR3X1_28/C NOR3X1_28/A gnd OAI21X1_343/Y vdd OAI21X1
XOAI21X1_332 INVX1_177/Y INVX1_148/Y OR2X2_32/A gnd OAI21X1_333/C vdd OAI21X1
XOAI21X1_376 XOR2X1_22/B XOR2X1_22/A OR2X2_37/Y gnd INVX1_307/A vdd OAI21X1
XOAI21X1_321 OR2X2_31/A OAI21X1_377/C OAI21X1_321/C gnd XOR2X1_22/A vdd OAI21X1
XOAI21X1_310 INVX1_225/A OAI21X1_310/B AOI22X1_37/C gnd INVX1_296/A vdd OAI21X1
XOAI21X1_354 OAI21X1_354/A OAI21X1_354/B AND2X2_78/Y gnd OAI21X1_354/Y vdd OAI21X1
XXOR2X1_32 XOR2X1_32/A XOR2X1_32/B gnd XOR2X1_32/Y vdd XOR2X1
XXOR2X1_43 XOR2X1_43/A XOR2X1_43/B gnd XOR2X1_43/Y vdd XOR2X1
XXOR2X1_21 XOR2X1_21/A XOR2X1_21/B gnd XOR2X1_21/Y vdd XOR2X1
XXOR2X1_10 XOR2X1_10/A XOR2X1_10/B gnd XOR2X1_10/Y vdd XOR2X1
XNAND2X1_393 INVX1_312/A XOR2X1_27/Y gnd NAND3X1_403/B vdd NAND2X1
XNAND2X1_382 NAND3X1_350/C NAND3X1_350/Y gnd INVX1_322/A vdd NAND2X1
XNAND2X1_360 OR2X2_35/B OR2X2_41/A gnd AOI22X1_50/B vdd NAND2X1
XNAND2X1_371 INVX1_303/A OAI21X1_418/B gnd AOI22X1_48/B vdd NAND2X1
XINVX1_204 INVX1_204/A gnd INVX1_204/Y vdd INVX1
XINVX1_226 cos_gamma[11] gnd INVX1_226/Y vdd INVX1
XINVX1_259 cos_gamma[12] gnd INVX1_259/Y vdd INVX1
XOAI21X1_184 INVX1_28/Y INVX1_177/Y INVX1_152/A gnd OAI21X1_185/C vdd OAI21X1
XOAI21X1_151 AOI22X1_19/Y AOI22X1_20/Y AOI21X1_84/C gnd AOI21X1_70/B vdd OAI21X1
XOAI21X1_162 NOR3X1_17/B NOR3X1_17/C NOR3X1_17/A gnd AOI21X1_80/A vdd OAI21X1
XOAI21X1_195 AOI21X1_96/Y AOI21X1_97/Y AOI21X1_95/Y gnd OAI21X1_195/Y vdd OAI21X1
XOAI21X1_173 OAI21X1_173/A INVX1_171/Y AOI21X1_74/B gnd OR2X2_20/A vdd OAI21X1
XAOI22X1_5 BUFX2_3/Y vertices[5] BUFX2_16/Y vertices[4] gnd AOI22X1_5/Y vdd AOI22X1
XOAI21X1_140 AOI21X1_60/Y AOI21X1_61/Y INVX1_150/Y gnd OAI21X1_140/Y vdd OAI21X1
XINVX1_215 INVX1_215/A gnd INVX1_215/Y vdd INVX1
XINVX1_248 INVX1_248/A gnd INVX1_248/Y vdd INVX1
XINVX1_237 INVX1_237/A gnd INVX1_237/Y vdd INVX1
XNAND2X1_59 XOR2X1_5/B XOR2X1_5/A gnd OAI21X1_39/C vdd NAND2X1
XNAND2X1_48 dy[4] dx[4] gnd INVX1_56/A vdd NAND2X1
XNAND2X1_15 OR2X2_4/B OR2X2_4/A gnd OAI21X1_13/C vdd NAND2X1
XNAND2X1_37 vertices[1] cos_alpha[4] gnd NOR2X1_46/A vdd NAND2X1
XNAND2X1_26 BUFX2_8/Y INVX1_43/A gnd INVX1_67/A vdd NAND2X1
XNAND2X1_190 AND2X2_46/B AND2X2_46/A gnd NAND3X1_211/A vdd NAND2X1
XAOI22X1_57 AOI22X1_57/A AOI22X1_57/B AOI22X1_57/C AOI22X1_57/D gnd AOI22X1_57/Y vdd
+ AOI22X1
XAOI21X1_208 OAI21X1_401/Y OAI21X1_431/C INVX1_315/Y gnd NOR3X1_41/B vdd AOI21X1
XAOI22X1_46 AOI22X1_46/A AOI22X1_46/B INVX1_340/A AOI22X1_46/D gnd AOI22X1_46/Y vdd
+ AOI22X1
XAOI21X1_219 AOI22X1_45/B cos_gamma[3] INVX1_342/A gnd INVX1_343/A vdd AOI21X1
XAOI22X1_35 AND2X2_67/A AOI22X1_35/B INVX1_295/A AOI22X1_35/D gnd AOI22X1_35/Y vdd
+ AOI22X1
XAOI22X1_13 NAND3X1_75/Y AOI22X1_13/B NAND3X1_77/A NAND3X1_77/C gnd NOR3X1_14/B vdd
+ AOI22X1
XAOI22X1_24 AND2X2_31/Y AND2X2_43/Y INVX1_154/Y AOI22X1_24/D gnd AOI22X1_24/Y vdd
+ AOI22X1
XNOR3X1_3 NOR3X1_3/A NOR3X1_3/B NOR3X1_3/C gnd NOR3X1_3/Y vdd NOR3X1
XFILL_23_1_2 gnd vdd FILL
XOAI22X1_8 OAI22X1_8/A OAI22X1_8/B OAI22X1_8/C OAI22X1_8/D gnd OAI22X1_8/Y vdd OAI22X1
XFILL_6_2_2 gnd vdd FILL
XFILL_14_1_2 gnd vdd FILL
XAOI21X1_90 AOI21X1_90/A INVX1_212/A XNOR2X1_28/Y gnd AOI21X1_90/Y vdd AOI21X1
XFILL_19_1 gnd vdd FILL
XAND2X2_104 XNOR2X1_63/Y NOR2X1_183/A gnd NOR2X1_184/B vdd AND2X2
XNAND3X1_521 OAI21X1_482/Y NAND3X1_521/B NAND3X1_521/C gnd NAND3X1_521/Y vdd NAND3X1
XNAND3X1_532 NAND3X1_532/A NAND3X1_532/B NAND3X1_532/C gnd NAND3X1_535/A vdd NAND3X1
XNAND3X1_510 NAND3X1_510/A NAND3X1_510/B XOR2X1_43/Y gnd NAND3X1_533/B vdd NAND3X1
XNAND3X1_543 OAI21X1_511/Y NAND3X1_543/B OAI21X1_514/Y gnd NAND3X1_545/B vdd NAND3X1
XNOR2X1_200 NOR2X1_200/A NOR2X1_200/B gnd NOR3X1_48/C vdd NOR2X1
XFILL_28_0_2 gnd vdd FILL
XFILL_3_0_2 gnd vdd FILL
XFILL_19_0_2 gnd vdd FILL
XNAND3X1_384 AND2X2_93/B AOI22X1_42/D AND2X2_81/Y gnd AND2X2_93/A vdd NAND3X1
XNAND3X1_362 NOR3X1_35/A OAI21X1_347/Y NAND3X1_362/C gnd NAND3X1_362/Y vdd NAND3X1
XNAND3X1_351 OAI21X1_334/Y INVX1_284/Y OR2X2_33/Y gnd OAI21X1_386/C vdd NAND3X1
XNAND3X1_340 INVX1_269/A AND2X2_84/B NAND3X1_340/C gnd AND2X2_84/A vdd NAND3X1
XNAND3X1_373 INVX1_294/Y AND2X2_89/A NAND3X1_373/C gnd NAND3X1_378/B vdd NAND3X1